 ParallelLakes_decHRUfixDE SWAT+ Jun 13 2022    MODULAR Rev 2020.60.5.5                                   
                                        zmx       usle_k       sumfc       sumul      usle_p     usle_ls        esco        epco     cn3_swf       perco     latq_co   tiledrain 
 sname           hydgrp                 (mm)                    (mm)        (mm)                                                                                     0=notile;1=tile;
167956          C                  2000.0000      0.0000    249.3000    399.5722      1.0000      0.6143      0.9500      0.3000      0.1000      0.9500      0.0100           0
167956          C                  2000.0000      0.0000    249.3000    399.5722      1.0000      0.6813      0.9500      0.3000      0.1000      0.9500      0.0100           0
172205          C                  2030.0000      0.0000    393.7000    677.2701      1.0000      0.7367      0.9500      0.3000      0.1000      0.9500      0.0100           0
172202          C                  2030.0000      0.0000    393.7000    700.8920      1.0000      0.7144      0.9500      0.3000      0.1000      0.0500      0.0100           0
167956          C                  2000.0000      0.0000    249.3000    399.5722      1.0000      0.9729      0.9500      0.3000      0.1000      0.0500      0.0100           0
172205          C                  2030.0000      0.0000    393.7000    677.2701      1.0000      1.2229      0.9500      0.3000      0.1000      0.0500      0.0100           0
172107          C                  2030.0000      0.0000    309.1000    619.4863      1.0000      0.6261      0.9500      0.3000      0.1000      0.0500      0.0100           0
172205          C                  2030.0000      0.0000    393.7000    677.2701      1.0000      1.5175      0.9500      0.3000      0.1000      0.9500      0.0100           0
172130          C                  2030.0000      0.0000    292.8000    433.0612      1.0000      0.3635      0.9500      0.3000      0.1000      0.9500      0.0100           0
167956          C                  2000.0000      0.0000    249.3000    399.5722      1.0000      0.7487      0.9500      0.3000      0.1000      0.9500      0.0100           0
172107          C                  2030.0000      0.0000    309.1000    619.4863      1.0000      0.6227      0.9500      0.3000      0.1000      0.9500      0.0100           0
172130          C                  2030.0000      0.0000    292.8000    433.0612      1.0000      0.2195      0.9500      0.3000      0.1000      0.0500      0.0100           0
172205          C                  2030.0000      0.0000    393.7000    677.2701      1.0000      0.7696      0.9500      0.3000      0.1000      0.0500      0.0100           0
172202          C                  2030.0000      0.0000    393.7000    700.8920      1.0000      0.8394      0.9500      0.3000      0.1000      0.0500      0.0100           0
172113          A                  2030.0000      0.0000    248.8000    708.9323      1.0000      0.4228      0.9500      0.3000      0.1000      0.0500      0.0100           0
172107          C                  2030.0000      0.0000    309.1000    619.4863      1.0000      0.5443      0.9500      0.3000      0.1000      0.0500      0.0100           0
172202          C                  2030.0000      0.0000    393.7000    700.8920      1.0000      0.5669      0.9500      0.3000      0.1000      0.0500      0.0100           0
167956          C                  2000.0000      0.0000    249.3000    399.5722      1.0000      0.5449      0.9500      0.3000      0.1000      0.0500      0.0100           0
172203          C                  2030.0000      0.0000    384.5000    750.9713      1.0000      1.0683      0.9500      0.3000      0.1000      0.0500      0.0100           0
172203          C                  2030.0000      0.0000    384.5000    750.9713      1.0000      1.5862      0.9500      0.3000      0.1000      0.9500      0.0100           0
167956          C                  2000.0000      0.0000    249.3000    399.5722      1.0000      0.2102      0.9500      0.3000      0.1000      0.9500      0.0100           0
172113          A                  2030.0000      0.0000    248.8000    708.9323      1.0000      0.7035      0.9500      0.3000      0.1000      0.0500      0.0100           0
172202          C                  2030.0000      0.0000    393.7000    700.8920      1.0000      0.5555      0.9500      0.3000      0.1000      0.0500      0.0100           0
172203          C                  2030.0000      0.0000    384.5000    750.9713      1.0000      0.8744      0.9500      0.3000      0.1000      0.0500      0.0100           0
172130          C                  2030.0000      0.0000    292.8000    433.0612      1.0000      0.2976      0.9500      0.3000      0.1000      0.0500      0.0100           0
172106          C                  2030.0000      0.0000    307.5000    616.1705      1.0000      0.2866      0.9500      0.3000      0.1000      0.0500      0.0100           0
172107          C                  2030.0000      0.0000    309.1000    619.4863      1.0000      0.4178      0.9500      0.3000      0.1000      0.0500      0.0100           0
172113          A                  2030.0000      0.0000    248.8000    708.9323      1.0000      0.3346      0.9500      0.3000      0.1000      0.9500      0.0100           0
172203          C                  2030.0000      0.0000    384.5000    750.9713      1.0000      1.8965      0.9500      0.3000      0.1000      0.9500      0.0100           0
167956          C                  2000.0000      0.0000    249.3000    399.5722      1.0000      1.0566      0.9500      0.3000      0.1000      0.9500      0.0100           0
172202          C                  2030.0000      0.0000    393.7000    700.8920      1.0000      0.5998      0.9500      0.3000      0.1000      0.9500      0.0100           0
172136          A                  2030.0000      0.0000    135.2000    857.0502      1.0000      0.9062      0.9500      0.3000      0.1000      0.9500      0.0100           0
172166          A                  2030.0000      0.0000    141.9000    809.5799      1.0000      0.7321      0.9500      0.3000      0.1000      0.9500      0.0100           0
172106          C                  2030.0000      0.0000    307.5000    616.1705      1.0000      0.7350      0.9500      0.3000      0.1000      0.9500      0.0100           0
172130          C                  2030.0000      0.0000    292.8000    433.0612      1.0000      0.4159      0.9500      0.3000      0.1000      0.9500      0.0100           0
172107          C                  2030.0000      0.0000    309.1000    619.4863      1.0000      0.7122      0.9500      0.3000      0.1000      0.9500      0.0100           0
172205          C                  2030.0000      0.0000    393.7000    677.2701      1.0000      1.4728      0.9500      0.3000      0.1000      0.0500      0.0100           0
172107          C                  2030.0000      0.0000    309.1000    619.4863      1.0000      0.6501      0.9500      0.3000      0.1000      0.0500      0.0100           0
167956          C                  2000.0000      0.0000    249.3000    399.5722      1.0000      1.1227      0.9500      0.3000      0.1000      0.0500      0.0100           0
172130          C                  2030.0000      0.0000    292.8000    433.0612      1.0000      1.4136      0.9500      0.3000      0.1000      0.0500      0.0100           0
167956          C                  2000.0000      0.0000    249.3000    399.5722      1.0000      0.6288      0.9500      0.3000      0.1000      0.9500      0.0100           0
172205          C                  2030.0000      0.0000    393.7000    677.2701      1.0000      2.1741      0.9500      0.3000      0.1000      0.9500      0.0100           0
172130          C                  2030.0000      0.0000    292.8000    433.0612      1.0000      0.3214      0.9500      0.3000      0.1000      0.9500      0.0100           0
172107          C                  2030.0000      0.0000    309.1000    619.4863      1.0000      0.7181      0.9500      0.3000      0.1000      0.0500      0.0100           0
172130          C                  2030.0000      0.0000    292.8000    433.0612      1.0000      0.2115      0.9500      0.3000      0.1000      0.0500      0.0100           0
172205          C                  2030.0000      0.0000    393.7000    677.2701      1.0000      0.6287      0.9500      0.3000      0.1000      0.0500      0.0100           0
172130          C                  2030.0000      0.0000    292.8000    433.0612      1.0000      0.0650      0.9500      0.3000      0.1000      0.9500      0.0100           0
172156          C                  2030.0000      0.0000    406.4000    448.6517      1.0000      0.0848      0.9500      0.3000      0.1000      0.0500      0.0100           0
172130          C                  2030.0000      0.0000    292.8000    433.0612      1.0000      0.1023      0.9500      0.3000      0.1000      0.0500      0.0100           0
172113          A                  2030.0000      0.0000    248.8000    708.9323      1.0000      0.1351      0.9500      0.3000      0.1000      0.0500      0.0100           0
172151          B                  2030.0000      0.0000    372.6000    639.4822      1.0000      0.0947      0.9500      0.3000      0.1000      0.0500      0.0100           0
172106          C                  2030.0000      0.0000    307.5000    616.1705      1.0000      0.5276      0.9500      0.3000      0.1000      0.0500      0.0100           0
172136          A                  2030.0000      0.0000    135.2000    857.0502      1.0000      0.4559      0.9500      0.3000      0.1000      0.0500      0.0100           0
172107          C                  2030.0000      0.0000    309.1000    619.4863      1.0000      0.5788      0.9500      0.3000      0.1000      0.0500      0.0100           0
172205          C                  2030.0000      0.0000    393.7000    677.2701      1.0000      0.9342      0.9500      0.3000      0.1000      0.0500      0.0100           0
172156          C                  2030.0000      0.0000    406.4000    448.6517      1.0000      0.0990      0.9500      0.3000      0.1000      0.9500      0.0100           0
172113          A                  2030.0000      0.0000    248.8000    708.9323      1.0000      0.1426      0.9500      0.3000      0.1000      0.9500      0.0100           0
172130          C                  2030.0000      0.0000    292.8000    433.0612      1.0000      0.4418      0.9500      0.3000      0.1000      0.9500      0.0100           0
172106          C                  2030.0000      0.0000    307.5000    616.1705      1.0000      0.2617      0.9500      0.3000      0.1000      0.9500      0.0100           0
172107          C                  2030.0000      0.0000    309.1000    619.4863      1.0000      0.7733      0.9500      0.3000      0.1000      0.9500      0.0100           0
172205          C                  2030.0000      0.0000    393.7000    677.2701      1.0000      0.9603      0.9500      0.3000      0.1000      0.9500      0.0100           0
172151          B                  2030.0000      0.0000    372.6000    639.4822      1.0000      0.5712      0.9500      0.3000      0.1000      0.9500      0.0100           0
172145          B                  2030.0000      0.0000    340.9000    789.7982      1.0000      0.5919      0.9500      0.3000      0.1000      0.9500      0.0100           0
172130          C                  2030.0000      0.0000    292.8000    433.0612      1.0000      0.1754      0.9500      0.3000      0.1000      0.4000      0.0100           2
172156          C                  2030.0000      0.0000    406.4000    448.6517      1.0000      0.3278      0.9500      0.3000      0.1000      0.1000      0.0100           2
172113          A                  2030.0000      0.0000    248.8000    708.9323      1.0000      0.1207      0.9500      0.3000      0.1000      0.2000      0.0100           0
172151          B                  2030.0000      0.0000    372.6000    639.4822      1.0000      0.0650      0.9500      0.3000      0.1000      0.4000      0.0100           2
172107          C                  2030.0000      0.0000    309.1000    619.4863      1.0000      0.4549      0.9500      0.3000      0.1000      0.4000      0.0100           2
172113          A                  2030.0000      0.0000    248.8000    708.9323      1.0000      0.3886      0.9500      0.3000      0.1000      0.2000      0.0100           0
172205          C                  2030.0000      0.0000    393.7000    677.2701      1.0000      0.4384      0.9500      0.3000      0.1000      0.0500      0.0100           0
172107          C                  2030.0000      0.0000    309.1000    619.4863      1.0000      0.2959      0.9500      0.3000      0.1000      0.0500      0.0100           0
172107          C                  2030.0000      0.0000    309.1000    619.4863      1.0000      0.1683      0.9500      0.3000      0.1000      0.1000      0.0100           2
172130          C                  2030.0000      0.0000    292.8000    433.0612      1.0000      0.0650      0.9500      0.3000      0.1000      0.2000      0.0100           2
172205          C                  2030.0000      0.0000    393.7000    677.2701      1.0000      0.2577      0.9500      0.3000      0.1000      0.9500      0.0100           0
172107          C                  2030.0000      0.0000    309.1000    619.4863      1.0000      0.2461      0.9500      0.3000      0.1000      0.9500      0.0100           0
172145          B                  2030.0000      0.0000    340.9000    789.7982      1.0000      0.3238      0.9500      0.3000      0.1000      0.9500      0.0100           0
172130          C                  2030.0000      0.0000    292.8000    433.0612      1.0000      0.1530      0.9500      0.3000      0.1000      0.0500      0.0100           0
172113          A                  2030.0000      0.0000    248.8000    708.9323      1.0000      0.3800      0.9500      0.3000      0.1000      0.0500      0.0100           0
172113          A                  2030.0000      0.0000    248.8000    708.9323      1.0000      0.0769      0.9500      0.3000      0.1000      0.9500      0.0100           0
172130          C                  2030.0000      0.0000    292.8000    433.0612      1.0000      0.3125      0.9500      0.3000      0.1000      0.9500      0.0100           0
172205          C                  2030.0000      0.0000    393.7000    677.2701      1.0000      1.2727      0.9500      0.3000      0.1000      0.9500      0.0100           0
172106          C                  2030.0000      0.0000    307.5000    616.1705      1.0000      0.5020      0.9500      0.3000      0.1000      0.9500      0.0100           0
167956          C                  2000.0000      0.0000    249.3000    399.5722      1.0000      1.3056      0.9500      0.3000      0.1000      0.9500      0.0100           0
172145          B                  2030.0000      0.0000    340.9000    789.7982      1.0000      0.6836      0.9500      0.3000      0.1000      0.9500      0.0100           0
172130          C                  2030.0000      0.0000    292.8000    433.0612      1.0000      0.6377      0.9500      0.3000      0.1000      0.9500      0.0100           0
172205          C                  2030.0000      0.0000    393.7000    677.2701      1.0000      1.1905      0.9500      0.3000      0.1000      0.9500      0.0100           0
167956          C                  2000.0000      0.0000    249.3000    399.5722      1.0000      1.3334      0.9500      0.3000      0.1000      0.9500      0.0100           0
172106          C                  2030.0000      0.0000    307.5000    616.1705      1.0000      1.4602      0.9500      0.3000      0.1000      0.9500      0.0100           0
172106          C                  2030.0000      0.0000    307.5000    616.1705      1.0000      0.6221      0.9500      0.3000      0.1000      0.9500      0.0100           0
172130          C                  2030.0000      0.0000    292.8000    433.0612      1.0000      0.2603      0.9500      0.3000      0.1000      0.9500      0.0100           0
172205          C                  2030.0000      0.0000    393.7000    677.2701      1.0000      1.5525      0.9500      0.3000      0.1000      0.9500      0.0100           0
172145          B                  2030.0000      0.0000    340.9000    789.7982      1.0000      0.8208      0.9500      0.3000      0.1000      0.9500      0.0100           0
172145          B                  2030.0000      0.0000    340.9000    789.7982      1.0000      0.1007      0.9500      0.3000      0.1000      0.9500      0.0100           0
172205          C                  2030.0000      0.0000    393.7000    677.2701      1.0000      0.2234      0.9500      0.3000      0.1000      0.9500      0.0100           0
172113          A                  2030.0000      0.0000    248.8000    708.9323      1.0000      0.1606      0.9500      0.3000      0.1000      0.4000      0.0100           0
172151          B                  2030.0000      0.0000    372.6000    639.4822      1.0000      0.1304      0.9500      0.3000      0.1000      0.4000      0.0100           2
172130          C                  2030.0000      0.0000    292.8000    433.0612      1.0000      0.1095      0.9500      0.3000      0.1000      0.4000      0.0100           2
172114          A                  2030.0000      0.0000    245.0000    674.2649      1.0000      0.0864      0.9500      0.3000      0.1000      0.4000      0.0100           0
172185          C                  2030.0000      0.0000    269.7000    537.8479      1.0000      0.6873      0.9500      0.3000      0.1000      0.2000      0.0100           2
172205          C                  2030.0000      0.0000    393.7000    677.2701      1.0000      1.2223      0.9500      0.3000      0.1000      0.4000      0.0100           2
172123          C                  2030.0000      0.0000    377.6000    678.6580      1.0000      0.0650      0.9500      0.3000      0.1000      0.1000      0.0100           2
172156          C                  2030.0000      0.0000    406.4000    448.6517      1.0000      0.1564      0.9500      0.3000      0.1000      0.1000      0.0100           2
172184          C                  2030.0000      0.0000    282.3000    559.5900      1.0000      0.5762      0.9500      0.3000      0.1000      0.4000      0.0100           2
172113          A                  2030.0000      0.0000    248.8000    708.9323      1.0000      0.3976      0.9500      0.3000      0.1000      0.9500      0.0100           0
172130          C                  2030.0000      0.0000    292.8000    433.0612      1.0000      0.2403      0.9500      0.3000      0.1000      0.9500      0.0100           0
172205          C                  2030.0000      0.0000    393.7000    677.2701      1.0000      1.0159      0.9500      0.3000      0.1000      0.9500      0.0100           0
172156          C                  2030.0000      0.0000    406.4000    448.6517      1.0000      0.4265      0.9500      0.3000      0.1000      0.9500      0.0100           0
172145          B                  2030.0000      0.0000    340.9000    789.7982      1.0000      0.1134      0.9500      0.3000      0.1000      0.9500      0.0100           0
172185          C                  2030.0000      0.0000    269.7000    537.8479      1.0000      0.9931      0.9500      0.3000      0.1000      0.9500      0.0100           0
172106          C                  2030.0000      0.0000    307.5000    616.1705      1.0000      0.5786      0.9500      0.3000      0.1000      0.9500      0.0100           0
172184          C                  2030.0000      0.0000    282.3000    559.5900      1.0000      0.5853      0.9500      0.3000      0.1000      0.9500      0.0100           0
167956          C                  2000.0000      0.0000    249.3000    399.5722      1.0000      0.2089      0.9500      0.3000      0.1000      0.9500      0.0100           0
172107          C                  2030.0000      0.0000    309.1000    619.4863      1.0000      0.6334      0.9500      0.3000      0.1000      0.9500      0.0100           0
172113          A                  2030.0000      0.0000    248.8000    708.9323      1.0000      0.2458      0.9500      0.3000      0.1000      0.0500      0.0100           0
172151          B                  2030.0000      0.0000    372.6000    639.4822      1.0000      0.1564      0.9500      0.3000      0.1000      0.0500      0.0100           0
172130          C                  2030.0000      0.0000    292.8000    433.0612      1.0000      0.1645      0.9500      0.3000      0.1000      0.0500      0.0100           0
172185          C                  2030.0000      0.0000    269.7000    537.8479      1.0000      1.2081      0.9500      0.3000      0.1000      0.0500      0.0100           0
172156          C                  2030.0000      0.0000    406.4000    448.6517      1.0000      0.1827      0.9500      0.3000      0.1000      0.0500      0.0100           0
172205          C                  2030.0000      0.0000    393.7000    677.2701      1.0000      0.9732      0.9500      0.3000      0.1000      0.0500      0.0100           0
172114          A                  2030.0000      0.0000    245.0000    674.2649      1.0000      0.1290      0.9500      0.3000      0.1000      0.0500      0.0100           0
172123          C                  2030.0000      0.0000    377.6000    678.6580      1.0000      0.3590      0.9500      0.3000      0.1000      0.0500      0.0100           0
172184          C                  2030.0000      0.0000    282.3000    559.5900      1.0000      0.5432      0.9500      0.3000      0.1000      0.0500      0.0100           0
167956          C                  2000.0000      0.0000    249.3000    399.5722      1.0000      0.0685      0.9500      0.3000      0.1000      0.0500      0.0100           0
172107          C                  2030.0000      0.0000    309.1000    619.4863      1.0000      0.6321      0.9500      0.3000      0.1000      0.0500      0.0100           0
172113          A                  2030.0000      0.0000    248.8000    708.9323      1.0000      0.1576      0.9500      0.3000      0.1000      0.4000      0.0100           0
172185          C                  2030.0000      0.0000    269.7000    537.8479      1.0000      0.5872      0.9500      0.3000      0.1000      0.2000      0.0100           2
172151          B                  2030.0000      0.0000    372.6000    639.4822      1.0000      0.1326      0.9500      0.3000      0.1000      0.2000      0.0100           2
172114          A                  2030.0000      0.0000    245.0000    674.2649      1.0000      0.1578      0.9500      0.3000      0.1000      0.4000      0.0100           0
172123          C                  2030.0000      0.0000    377.6000    678.6580      1.0000      0.0650      0.9500      0.3000      0.1000      0.1000      0.0100           2
172184          C                  2030.0000      0.0000    282.3000    559.5900      1.0000      0.3812      0.9500      0.3000      0.1000      0.4000      0.0100           2
172130          C                  2030.0000      0.0000    292.8000    433.0612      1.0000      0.0864      0.9500      0.3000      0.1000      0.2000      0.0100           2
172145          B                  2030.0000      0.0000    340.9000    789.7982      1.0000      0.4206      0.9500      0.3000      0.1000      0.9500      0.0100           0
172205          C                  2030.0000      0.0000    393.7000    677.2701      1.0000      0.1523      0.9500      0.3000      0.1000      0.9500      0.0100           0
172130          C                  2030.0000      0.0000    292.8000    433.0612      1.0000      0.0700      0.9500      0.3000      0.1000      0.9500      0.0100           0
172185          C                  2030.0000      0.0000    269.7000    537.8479      1.0000      0.1583      0.9500      0.3000      0.1000      0.9500      0.0100           0
172184          C                  2030.0000      0.0000    282.3000    559.5900      1.0000      0.1286      0.9500      0.3000      0.1000      0.9500      0.0100           0
172156          C                  2030.0000      0.0000    406.4000    448.6517      1.0000      0.0829      0.9500      0.3000      0.1000      0.9500      0.0100           0
172113          A                  2030.0000      0.0000    248.8000    708.9323      1.0000      0.0650      0.9500      0.3000      0.1000      0.9500      0.0100           0
172156          C                  2030.0000      0.0000    406.4000    448.6517      1.0000      0.1407      0.9500      0.3000      0.1000      0.0500      0.0100           0
172184          C                  2030.0000      0.0000    282.3000    559.5900      1.0000      0.2153      0.9500      0.3000      0.1000      0.0500      0.0100           0
172130          C                  2030.0000      0.0000    292.8000    433.0612      1.0000      0.0650      0.9500      0.3000      0.1000      0.0500      0.0100           0
172113          A                  2030.0000      0.0000    248.8000    708.9323      1.0000      0.0650      0.9500      0.3000      0.1000      0.0500      0.0100           0
172203          C                  2030.0000      0.0000    384.5000    750.9713      1.0000      2.1114      0.9500      0.3000      0.1000      0.9500      0.0100           0
167956          C                  2000.0000      0.0000    249.3000    399.5722      1.0000      0.5424      0.9500      0.3000      0.1000      0.9500      0.0100           0
172205          C                  2030.0000      0.0000    393.7000    677.2701      1.0000      2.0878      0.9500      0.3000      0.1000      0.9500      0.0100           0
172106          C                  2030.0000      0.0000    307.5000    616.1705      1.0000      0.6232      0.9500      0.3000      0.1000      0.9500      0.0100           0
172203          C                  2030.0000      0.0000    384.5000    750.9713      1.0000      2.9901      0.9500      0.3000      0.1000      0.9500      0.0100           0
172106          C                  2030.0000      0.0000    307.5000    616.1705      1.0000      0.5596      0.9500      0.3000      0.1000      0.9500      0.0100           0
167956          C                  2000.0000      0.0000    249.3000    399.5722      1.0000      1.3556      0.9500      0.3000      0.1000      0.9500      0.0100           0
172106          C                  2030.0000      0.0000    307.5000    616.1705      1.0000      0.6682      0.9500      0.3000      0.1000      0.9500      0.0100           0
172203          C                  2030.0000      0.0000    384.5000    750.9713      1.0000      2.0884      0.9500      0.3000      0.1000      0.9500      0.0100           0
167956          C                  2000.0000      0.0000    249.3000    399.5722      1.0000      1.2773      0.9500      0.3000      0.1000      0.9500      0.0100           0
172107          C                  2030.0000      0.0000    309.1000    619.4863      1.0000      0.6796      0.9500      0.3000      0.1000      0.9500      0.0100           0
172113          A                  2030.0000      0.0000    248.8000    708.9323      1.0000      0.5962      0.9500      0.3000      0.1000      0.9500      0.0100           0
172107          C                  2030.0000      0.0000    309.1000    619.4863      1.0000      0.6968      0.9500      0.3000      0.1000      0.0500      0.0100           0
172113          A                  2030.0000      0.0000    248.8000    708.9323      1.0000      0.0951      0.9500      0.3000      0.1000      0.0500      0.0100           0
167956          C                  2000.0000      0.0000    249.3000    399.5722      1.0000      1.1572      0.9500      0.3000      0.1000      0.9500      0.0100           0
172203          C                  2030.0000      0.0000    384.5000    750.9713      1.0000      1.5519      0.9500      0.3000      0.1000      0.9500      0.0100           0
172107          C                  2030.0000      0.0000    309.1000    619.4863      1.0000      0.7039      0.9500      0.3000      0.1000      0.9500      0.0100           0
172145          B                  2030.0000      0.0000    340.9000    789.7982      1.0000      0.8218      0.9500      0.3000      0.1000      0.9500      0.0100           0
172113          A                  2030.0000      0.0000    248.8000    708.9323      1.0000      0.2628      0.9500      0.3000      0.1000      0.9500      0.0100           0
172151          B                  2030.0000      0.0000    372.6000    639.4822      1.0000      0.3612      0.9500      0.3000      0.1000      0.9500      0.0100           0
172106          C                  2030.0000      0.0000    307.5000    616.1705      1.0000      0.4179      0.9500      0.3000      0.1000      0.9500      0.0100           0
167956          C                  2000.0000      0.0000    249.3000    399.5722      1.0000      0.7853      0.9500      0.3000      0.1000      0.9500      0.0100           0
172203          C                  2030.0000      0.0000    384.5000    750.9713      1.0000      0.3930      0.9500      0.3000      0.1000      0.9500      0.0100           0
172107          C                  2030.0000      0.0000    309.1000    619.4863      1.0000      0.5831      0.9500      0.3000      0.1000      0.9500      0.0100           0
172113          A                  2030.0000      0.0000    248.8000    708.9323      1.0000      0.0830      0.9500      0.3000      0.1000      0.0500      0.0100           0
172106          C                  2030.0000      0.0000    307.5000    616.1705      1.0000      0.5108      0.9500      0.3000      0.1000      0.0500      0.0100           0
167956          C                  2000.0000      0.0000    249.3000    399.5722      1.0000      0.0650      0.9500      0.3000      0.1000      0.0500      0.0100           0
172203          C                  2030.0000      0.0000    384.5000    750.9713      1.0000      0.9763      0.9500      0.3000      0.1000      0.0500      0.0100           0
172107          C                  2030.0000      0.0000    309.1000    619.4863      1.0000      0.8574      0.9500      0.3000      0.1000      0.0500      0.0100           0
172113          A                  2030.0000      0.0000    248.8000    708.9323      1.0000      0.1215      0.9500      0.3000      0.1000      0.4000      0.0100           0
167956          C                  2000.0000      0.0000    249.3000    399.5722      1.0000      0.4089      0.9500      0.3000      0.1000      0.9500      0.0100           0
172203          C                  2030.0000      0.0000    384.5000    750.9713      1.0000      2.5262      0.9500      0.3000      0.1000      0.9500      0.0100           0
167956          C                  2000.0000      0.0000    249.3000    399.5722      1.0000      0.0650      0.9500      0.3000      0.1000      0.0500      0.0100           0
172106          C                  2030.0000      0.0000    307.5000    616.1705      1.0000      0.0650      0.9500      0.3000      0.1000      0.9500      0.0100           0
172205          C                  2030.0000      0.0000    393.7000    677.2701      1.0000      1.9741      0.9500      0.3000      0.1000      0.9500      0.0100           0
167956          C                  2000.0000      0.0000    249.3000    399.5722      1.0000      4.0285      0.9500      0.3000      0.1000      0.9500      0.0100           0
172106          C                  2030.0000      0.0000    307.5000    616.1705      1.0000      0.6273      0.9500      0.3000      0.1000      0.9500      0.0100           0
172205          C                  2030.0000      0.0000    393.7000    677.2701      1.0000      2.8667      0.9500      0.3000      0.1000      0.9500      0.0100           0
167956          C                  2000.0000      0.0000    249.3000    399.5722      1.0000      1.8573      0.9500      0.3000      0.1000      0.9500      0.0100           0
172204          C                  2030.0000      0.0000    386.5000    710.5571      1.0000      1.7135      0.9500      0.3000      0.1000      0.9500      0.0100           0
172107          C                  2030.0000      0.0000    309.1000    619.4863      1.0000      0.2884      0.9500      0.3000      0.1000      0.9500      0.0100           0
172106          C                  2030.0000      0.0000    307.5000    616.1705      1.0000      0.4442      0.9500      0.3000      0.1000      0.9500      0.0100           0
172113          A                  2030.0000      0.0000    248.8000    708.9323      1.0000      0.5470      0.9500      0.3000      0.1000      0.9500      0.0100           0
172204          C                  2030.0000      0.0000    386.5000    710.5571      1.0000      1.5661      0.9500      0.3000      0.1000      0.9500      0.0100           0
172130          C                  2030.0000      0.0000    292.8000    433.0612      1.0000      0.1387      0.9500      0.3000      0.1000      0.9500      0.0100           0
167956          C                  2000.0000      0.0000    249.3000    399.5722      1.0000      1.2341      0.9500      0.3000      0.1000      0.9500      0.0100           0
172107          C                  2030.0000      0.0000    309.1000    619.4863      1.0000      0.0650      0.9500      0.3000      0.1000      0.9500      0.0100           0
172204          C                  2030.0000      0.0000    386.5000    710.5571      1.0000      0.2638      0.9500      0.3000      0.1000      0.9500      0.0100           0
172106          C                  2030.0000      0.0000    307.5000    616.1705      1.0000      0.2269      0.9500      0.3000      0.1000      0.9500      0.0100           0
167956          C                  2000.0000      0.0000    249.3000    399.5722      1.0000      0.2289      0.9500      0.3000      0.1000      0.9500      0.0100           0
172151          B                  2030.0000      0.0000    372.6000    639.4822      1.0000      0.0650      0.9500      0.3000      0.1000      0.4000      0.0100           2
172113          A                  2030.0000      0.0000    248.8000    708.9323      1.0000      0.1504      0.9500      0.3000      0.1000      0.4000      0.0100           0
172202          C                  2030.0000      0.0000    393.7000    700.8920      1.0000      0.5280      0.9500      0.3000      0.1000      0.1000      0.0100           2
172106          C                  2030.0000      0.0000    307.5000    616.1705      1.0000      0.1049      0.9500      0.3000      0.1000      0.4000      0.0100           2
172113          A                  2030.0000      0.0000    248.8000    708.9323      1.0000      0.5489      0.9500      0.3000      0.1000      0.9500      0.0100           0
172106          C                  2030.0000      0.0000    307.5000    616.1705      1.0000      0.5450      0.9500      0.3000      0.1000      0.9500      0.0100           0
172202          C                  2030.0000      0.0000    393.7000    700.8920      1.0000      0.7344      0.9500      0.3000      0.1000      0.9500      0.0100           0
172203          C                  2030.0000      0.0000    384.5000    750.9713      1.0000      0.1407      0.9500      0.3000      0.1000      0.9500      0.0100           0
167956          C                  2000.0000      0.0000    249.3000    399.5722      1.0000      0.0650      0.9500      0.3000      0.1000      0.9500      0.0100           0
172106          C                  2030.0000      0.0000    307.5000    616.1705      1.0000      0.6310      0.9500      0.3000      0.1000      0.0500      0.0100           0
172203          C                  2030.0000      0.0000    384.5000    750.9713      1.0000      0.1592      0.9500      0.3000      0.1000      0.0500      0.0100           0
167956          C                  2000.0000      0.0000    249.3000    399.5722      1.0000      0.0650      0.9500      0.3000      0.1000      0.0500      0.0100           0
172113          A                  2030.0000      0.0000    248.8000    708.9323      1.0000      0.1917      0.9500      0.3000      0.1000      0.7000      0.0100           0
172202          C                  2030.0000      0.0000    393.7000    700.8920      1.0000      0.6306      0.9500      0.3000      0.1000      0.7000      0.0100           0
172106          C                  2030.0000      0.0000    307.5000    616.1705      1.0000      0.1398      0.9500      0.3000      0.1000      0.7000      0.0100           0
167956          C                  2000.0000      0.0000    249.3000    399.5722      1.0000      0.0650      0.9500      0.3000      0.1000      0.0500      0.0100           0
172203          C                  2030.0000      0.0000    384.5000    750.9713      1.0000      0.0650      0.9500      0.3000      0.1000      0.0500      0.0100           0
172203          C                  2030.0000      0.0000    384.5000    750.9713      1.0000      0.0650      0.9500      0.3000      0.1000      0.9500      0.0100           0
167956          C                  2000.0000      0.0000    249.3000    399.5722      1.0000      0.1583      0.9500      0.3000      0.1000      0.0500      0.0100           0
172203          C                  2030.0000      0.0000    384.5000    750.9713      1.0000      0.0650      0.9500      0.3000      0.1000      0.0500      0.0100           0
172107          C                  2030.0000      0.0000    309.1000    619.4863      1.0000      0.8629      0.9500      0.3000      0.1000      0.0500      0.0100           0
172106          C                  2030.0000      0.0000    307.5000    616.1705      1.0000      0.7460      0.9500      0.3000      0.1000      0.0500      0.0100           0
172203          C                  2030.0000      0.0000    384.5000    750.9713      1.0000      0.2831      0.9500      0.3000      0.1000      0.9500      0.0100           0
167956          C                  2000.0000      0.0000    249.3000    399.5722      1.0000      0.0650      0.9500      0.3000      0.1000      0.9500      0.0100           0
172107          C                  2030.0000      0.0000    309.1000    619.4863      1.0000      0.8091      0.9500      0.3000      0.1000      0.9500      0.0100           0
172113          A                  2030.0000      0.0000    248.8000    708.9323      1.0000      0.4880      0.9500      0.3000      0.1000      0.9500      0.0100           0
172106          C                  2030.0000      0.0000    307.5000    616.1705      1.0000      0.4525      0.9500      0.3000      0.1000      0.9500      0.0100           0
172202          C                  2030.0000      0.0000    393.7000    700.8920      1.0000      0.6736      0.9500      0.3000      0.1000      0.9500      0.0100           0
172106          C                  2030.0000      0.0000    307.5000    616.1705      1.0000      0.9143      0.9500      0.3000      0.1000      0.7000      0.0100           0
167956          C                  2000.0000      0.0000    249.3000    399.5722      1.0000      1.1507      0.9500      0.3000      0.1000      0.7000      0.0100           0
172106          C                  2030.0000      0.0000    307.5000    616.1705      1.0000      0.1705      0.9500      0.3000      0.1000      0.4000      0.0100           2
172202          C                  2030.0000      0.0000    393.7000    700.8920      1.0000      0.6961      0.9500      0.3000      0.1000      0.2000      0.0100           2
172107          C                  2030.0000      0.0000    309.1000    619.4863      1.0000      0.3981      0.9500      0.3000      0.1000      0.4000      0.0100           2
172106          C                  2030.0000      0.0000    307.5000    616.1705      1.0000      0.4624      0.9500      0.3000      0.1000      0.1000      0.0100           2
172107          C                  2030.0000      0.0000    309.1000    619.4863      1.0000      0.4420      0.9500      0.3000      0.1000      0.1000      0.0100           2
167956          C                  2000.0000      0.0000    249.3000    399.5722      1.0000      1.2900      0.9500      0.3000      0.1000      0.4000      0.0100           2
167956          C                  2000.0000      0.0000    249.3000    399.5722      1.0000      0.0650      0.9500      0.3000      0.1000      0.0500      0.0100           0
172203          C                  2030.0000      0.0000    384.5000    750.9713      1.0000      0.0650      0.9500      0.3000      0.1000      0.9500      0.0100           0
172107          C                  2030.0000      0.0000    309.1000    619.4863      1.0000      0.5856      0.9500      0.3000      0.1000      0.9500      0.0100           0
172113          A                  2030.0000      0.0000    248.8000    708.9323      1.0000      0.1504      0.9500      0.3000      0.1000      0.9500      0.0100           0
172113          A                  2030.0000      0.0000    248.8000    708.9323      1.0000      0.0650      0.9500      0.3000      0.1000      0.0500      0.0100           0
172203          C                  2030.0000      0.0000    384.5000    750.9713      1.0000      1.4415      0.9500      0.3000      0.1000      0.9500      0.0100           0
172107          C                  2030.0000      0.0000    309.1000    619.4863      1.0000      0.5590      0.9500      0.3000      0.1000      0.9500      0.0100           0
172145          B                  2030.0000      0.0000    340.9000    789.7982      1.0000      2.7368      0.9500      0.3000      0.1000      0.9500      0.0100           0
167956          C                  2000.0000      0.0000    249.3000    399.5722      1.0000      1.3492      0.9500      0.3000      0.1000      0.9500      0.0100           0
172113          A                  2030.0000      0.0000    248.8000    708.9323      1.0000      0.4263      0.9500      0.3000      0.1000      0.9500      0.0100           0
172205          C                  2030.0000      0.0000    393.7000    677.2701      1.0000      0.7277      0.9500      0.3000      0.1000      0.9500      0.0100           0
172113          A                  2030.0000      0.0000    248.8000    708.9323      1.0000      0.2053      0.9500      0.3000      0.1000      0.0500      0.0100           0
172203          C                  2030.0000      0.0000    384.5000    750.9713      1.0000      1.1128      0.9500      0.3000      0.1000      0.9500      0.0100           0
172113          A                  2030.0000      0.0000    248.8000    708.9323      1.0000      0.7999      0.9500      0.3000      0.1000      0.9500      0.0100           0
172145          B                  2030.0000      0.0000    340.9000    789.7982      1.0000      1.1312      0.9500      0.3000      0.1000      0.9500      0.0100           0
167956          C                  2000.0000      0.0000    249.3000    399.5722      1.0000      0.4338      0.9500      0.3000      0.1000      0.9500      0.0100           0
172205          C                  2030.0000      0.0000    393.7000    677.2701      1.0000      1.7084      0.9500      0.3000      0.1000      0.9500      0.0100           0
167956          C                  2000.0000      0.0000    249.3000    399.5722      1.0000      0.6972      0.9500      0.3000      0.1000      0.9500      0.0100           0
167956          C                  2000.0000      0.0000    249.3000    399.5722      1.0000      0.1228      0.9500      0.3000      0.1000      0.4000      0.0100           2
167956          C                  2000.0000      0.0000    249.3000    399.5722      1.0000      0.0650      0.9500      0.3000      0.1000      0.0500      0.0100           0
167956          C                  2000.0000      0.0000    249.3000    399.5722      1.0000      0.0650      0.9500      0.3000      0.1000      0.7000      0.0100           0
167956          C                  2000.0000      0.0000    249.3000    399.5722      1.0000      0.4839      0.9500      0.3000      0.1000      0.9500      0.0100           0
172204          C                  2030.0000      0.0000    386.5000    710.5571      1.0000      1.4752      0.9500      0.3000      0.1000      0.9500      0.0100           0
167956          C                  2000.0000      0.0000    249.3000    399.5722      1.0000      0.1505      0.9500      0.3000      0.1000      0.2000      0.0100           2
167956          C                  2000.0000      0.0000    249.3000    399.5722      1.0000      0.0650      0.9500      0.3000      0.1000      0.7000      0.0100           0
167956          C                  2000.0000      0.0000    249.3000    399.5722      1.0000      0.0656      0.9500      0.3000      0.1000      0.0500      0.0100           0
172205          C                  2030.0000      0.0000    393.7000    677.2701      1.0000      2.0105      0.9500      0.3000      0.1000      0.9500      0.0100           0
172145          B                  2030.0000      0.0000    340.9000    789.7982      1.0000      0.6712      0.9500      0.3000      0.1000      0.9500      0.0100           0
167956          C                  2000.0000      0.0000    249.3000    399.5722      1.0000      0.1695      0.9500      0.3000      0.1000      0.9500      0.0100           0
172113          A                  2030.0000      0.0000    248.8000    708.9323      1.0000      0.6002      0.9500      0.3000      0.1000      0.9500      0.0100           0
172113          A                  2030.0000      0.0000    248.8000    708.9323      1.0000      0.6030      0.9500      0.3000      0.1000      0.9500      0.0100           0
172205          C                  2030.0000      0.0000    393.7000    677.2701      1.0000      1.5202      0.9500      0.3000      0.1000      0.9500      0.0100           0
172145          B                  2030.0000      0.0000    340.9000    789.7982      1.0000      0.6603      0.9500      0.3000      0.1000      0.9500      0.0100           0
172106          C                  2030.0000      0.0000    307.5000    616.1705      1.0000      0.4139      0.9500      0.3000      0.1000      0.9500      0.0100           0
172113          A                  2030.0000      0.0000    248.8000    708.9323      1.0000      0.1214      0.9500      0.3000      0.1000      0.0500      0.0100           0
172106          C                  2030.0000      0.0000    307.5000    616.1705      1.0000      0.4884      0.9500      0.3000      0.1000      0.0500      0.0100           0
172205          C                  2030.0000      0.0000    393.7000    677.2701      1.0000      0.7121      0.9500      0.3000      0.1000      0.0500      0.0100           0
167956          C                  2000.0000      0.0000    249.3000    399.5722      1.0000      0.5349      0.9500      0.3000      0.1000      0.0500      0.0100           0
172106          C                  2030.0000      0.0000    307.5000    616.1705      1.0000      0.0749      0.9500      0.3000      0.1000      0.1000      0.0100           2
172107          C                  2030.0000      0.0000    309.1000    619.4863      1.0000      0.7427      0.9500      0.3000      0.1000      0.4000      0.0100           2
172107          C                  2030.0000      0.0000    309.1000    619.4863      1.0000      0.3406      0.9500      0.3000      0.1000      0.4000      0.0100           2
172106          C                  2030.0000      0.0000    307.5000    616.1705      1.0000      0.5467      0.9500      0.3000      0.1000      0.4000      0.0100           2
167956          C                  2000.0000      0.0000    249.3000    399.5722      1.0000      0.6108      0.9500      0.3000      0.1000      0.4000      0.0100           2
172107          C                  2030.0000      0.0000    309.1000    619.4863      1.0000      0.5391      0.9500      0.3000      0.1000      0.7000      0.0100           0
167956          C                  2000.0000      0.0000    249.3000    399.5722      1.0000      0.7127      0.9500      0.3000      0.1000      0.7000      0.0100           0
172106          C                  2030.0000      0.0000    307.5000    616.1705      1.0000      0.4317      0.9500      0.3000      0.1000      0.7000      0.0100           0
167956          C                  2000.0000      0.0000    249.3000    399.5722      1.0000      0.3458      0.9500      0.3000      0.1000      0.9500      0.0100           0
172145          B                  2030.0000      0.0000    340.9000    789.7982      1.0000      0.5495      0.9500      0.3000      0.1000      0.9500      0.0100           0
172205          C                  2030.0000      0.0000    393.7000    677.2701      1.0000      4.5381      0.9500      0.3000      0.1000      0.9500      0.0100           0
172113          A                  2030.0000      0.0000    248.8000    708.9323      1.0000      0.9388      0.9500      0.3000      0.1000      0.9500      0.0100           0
167956          C                  2000.0000      0.0000    249.3000    399.5722      1.0000      0.1581      0.9500      0.3000      0.1000      0.9500      0.0100           0
172145          B                  2030.0000      0.0000    340.9000    789.7982      1.0000      0.6036      0.9500      0.3000      0.1000      0.9500      0.0100           0
172205          C                  2030.0000      0.0000    393.7000    677.2701      1.0000      3.0833      0.9500      0.3000      0.1000      0.9500      0.0100           0
172113          A                  2030.0000      0.0000    248.8000    708.9323      1.0000      0.7104      0.9500      0.3000      0.1000      0.9500      0.0100           0
167956          C                  2000.0000      0.0000    249.3000    399.5722      1.0000      0.0650      0.9500      0.3000      0.1000      0.0500      0.0100           0
167956          C                  2000.0000      0.0000    249.3000    399.5722      1.0000      0.0650      0.9500      0.3000      0.1000      0.7000      0.0100           0
167956          C                  2000.0000      0.0000    249.3000    399.5722      1.0000      0.0650      0.9500      0.3000      0.1000      0.4000      0.0100           2
172113          A                  2030.0000      0.0000    248.8000    708.9323      1.0000      0.7776      0.9500      0.3000      0.1000      0.9500      0.0100           0
172205          C                  2030.0000      0.0000    393.7000    677.2701      1.0000      1.6125      0.9500      0.3000      0.1000      0.9500      0.0100           0
167956          C                  2000.0000      0.0000    249.3000    399.5722      1.0000      0.3198      0.9500      0.3000      0.1000      0.9500      0.0100           0
172145          B                  2030.0000      0.0000    340.9000    789.7982      1.0000      0.6290      0.9500      0.3000      0.1000      0.9500      0.0100           0
172113          A                  2030.0000      0.0000    248.8000    708.9323      1.0000      0.4299      0.9500      0.3000      0.1000      0.9500      0.0100           0
172205          C                  2030.0000      0.0000    393.7000    677.2701      1.0000      1.4118      0.9500      0.3000      0.1000      0.9500      0.0100           0
167956          C                  2000.0000      0.0000    249.3000    399.5722      1.0000      0.8064      0.9500      0.3000      0.1000      0.1000      0.0100           2
172156          C                  2030.0000      0.0000    406.4000    448.6517      1.0000      0.0722      0.9500      0.3000      0.1000      0.4000      0.0100           2
172106          C                  2030.0000      0.0000    307.5000    616.1705      1.0000      0.1502      0.9500      0.3000      0.1000      0.1000      0.0100           2
172123          C                  2030.0000      0.0000    377.6000    678.6580      1.0000      0.1378      0.9500      0.3000      0.1000      0.4000      0.0100           2
172136          A                  2030.0000      0.0000    135.2000    857.0502      1.0000      0.2052      0.9500      0.3000      0.1000      0.4000      0.0100           0
172113          A                  2030.0000      0.0000    248.8000    708.9323      1.0000      0.2076      0.9500      0.3000      0.1000      0.2000      0.0100           0
172187          A                  2030.0000      0.0000    129.9000    736.3116      1.0000      0.0650      0.9500      0.3000      0.1000      0.4000      0.0100           0
172142          A                  2030.0000      0.0000    205.8000    613.9092      1.0000      0.0650      0.9500      0.3000      0.1000      0.1000      0.0100           0
172174          A                  2030.0000      0.0000    253.2000    658.1131      1.0000      0.0650      0.9500      0.3000      0.1000      0.4000      0.0100           0
167956          C                  2000.0000      0.0000    249.3000    399.5722      1.0000      0.6137      0.9500      0.3000      0.1000      0.7000      0.0100           0
172136          A                  2030.0000      0.0000    135.2000    857.0502      1.0000      0.1873      0.9500      0.3000      0.1000      0.7000      0.0100           0
172123          C                  2030.0000      0.0000    377.6000    678.6580      1.0000      0.0650      0.9500      0.3000      0.1000      0.7000      0.0100           0
172142          A                  2030.0000      0.0000    205.8000    613.9092      1.0000      0.0650      0.9500      0.3000      0.1000      0.7000      0.0100           0
167956          C                  2000.0000      0.0000    249.3000    399.5722      1.0000      0.6283      0.9500      0.3000      0.1000      0.0500      0.0100           0
172107          C                  2030.0000      0.0000    309.1000    619.4863      1.0000      0.5488      0.9500      0.3000      0.1000      0.0500      0.0100           0
172205          C                  2030.0000      0.0000    393.7000    677.2701      1.0000      0.3886      0.9500      0.3000      0.1000      0.0500      0.0100           0
172113          A                  2030.0000      0.0000    248.8000    708.9323      1.0000      0.6177      0.9500      0.3000      0.1000      0.0500      0.0100           0
172106          C                  2030.0000      0.0000    307.5000    616.1705      1.0000      0.5364      0.9500      0.3000      0.1000      0.0500      0.0100           0
172156          C                  2030.0000      0.0000    406.4000    448.6517      1.0000      0.0684      0.9500      0.3000      0.1000      0.0500      0.0100           0
172130          C                  2030.0000      0.0000    292.8000    433.0612      1.0000      0.0650      0.9500      0.3000      0.1000      0.0500      0.0100           0
172123          C                  2030.0000      0.0000    377.6000    678.6580      1.0000      0.0650      0.9500      0.3000      0.1000      0.0500      0.0100           0
172136          A                  2030.0000      0.0000    135.2000    857.0502      1.0000      0.1890      0.9500      0.3000      0.1000      0.0500      0.0100           0
172187          A                  2030.0000      0.0000    129.9000    736.3116      1.0000      0.0650      0.9500      0.3000      0.1000      0.0500      0.0100           0
172142          A                  2030.0000      0.0000    205.8000    613.9092      1.0000      0.0650      0.9500      0.3000      0.1000      0.0500      0.0100           0
172205          C                  2030.0000      0.0000    393.7000    677.2701      1.0000      0.9454      0.9500      0.3000      0.1000      0.9500      0.0100           0
172113          A                  2030.0000      0.0000    248.8000    708.9323      1.0000      0.5545      0.9500      0.3000      0.1000      0.9500      0.0100           0
172107          C                  2030.0000      0.0000    309.1000    619.4863      1.0000      0.7191      0.9500      0.3000      0.1000      0.9500      0.0100           0
172136          A                  2030.0000      0.0000    135.2000    857.0502      1.0000      0.3193      0.9500      0.3000      0.1000      0.9500      0.0100           0
172123          C                  2030.0000      0.0000    377.6000    678.6580      1.0000      0.1752      0.9500      0.3000      0.1000      0.9500      0.0100           0
172136          A                  2030.0000      0.0000    135.2000    857.0502      1.0000      0.2725      0.9500      0.3000      0.1000      0.1000      0.0100           0
172187          A                  2030.0000      0.0000    129.9000    736.3116      1.0000      0.0650      0.9500      0.3000      0.1000      0.4000      0.0100           0
172123          C                  2030.0000      0.0000    377.6000    678.6580      1.0000      0.0658      0.9500      0.3000      0.1000      0.2000      0.0100           2
172142          A                  2030.0000      0.0000    205.8000    613.9092      1.0000      0.5887      0.9500      0.3000      0.1000      0.2000      0.0100           0
172106          C                  2030.0000      0.0000    307.5000    616.1705      1.0000      0.0650      0.9500      0.3000      0.1000      0.2000      0.0100           2
172174          A                  2030.0000      0.0000    253.2000    658.1131      1.0000      0.0650      0.9500      0.3000      0.1000      0.4000      0.0100           0
172205          C                  2030.0000      0.0000    393.7000    677.2701      1.0000      0.5351      0.9500      0.3000      0.1000      0.9500      0.0100           0
172113          A                  2030.0000      0.0000    248.8000    708.9323      1.0000      0.1286      0.9500      0.3000      0.1000      0.9500      0.0100           0
172107          C                  2030.0000      0.0000    309.1000    619.4863      1.0000      0.3793      0.9500      0.3000      0.1000      0.9500      0.0100           0
172205          C                  2030.0000      0.0000    393.7000    677.2701      1.0000      0.5734      0.9500      0.3000      0.1000      0.0500      0.0100           0
172107          C                  2030.0000      0.0000    309.1000    619.4863      1.0000      0.6806      0.9500      0.3000      0.1000      0.0500      0.0100           0
167956          C                  2000.0000      0.0000    249.3000    399.5722      1.0000      0.0874      0.9500      0.3000      0.1000      0.0500      0.0100           0
172113          A                  2030.0000      0.0000    248.8000    708.9323      1.0000      0.1393      0.9500      0.3000      0.1000      0.0500      0.0100           0
172123          C                  2030.0000      0.0000    377.6000    678.6580      1.0000      0.0650      0.9500      0.3000      0.1000      0.0500      0.0100           0
172106          C                  2030.0000      0.0000    307.5000    616.1705      1.0000      0.0650      0.9500      0.3000      0.1000      0.0500      0.0100           0
172106          C                  2030.0000      0.0000    307.5000    616.1705      1.0000      0.0650      0.9500      0.3000      0.1000      0.4000      0.0100           2
172123          C                  2030.0000      0.0000    377.6000    678.6580      1.0000      0.0650      0.9500      0.3000      0.1000      0.1000      0.0100           2
172156          C                  2030.0000      0.0000    406.4000    448.6517      1.0000      0.0650      0.9500      0.3000      0.1000      0.4000      0.0100           2
172205          C                  2030.0000      0.0000    393.7000    677.2701      1.0000      0.3391      0.9500      0.3000      0.1000      0.9500      0.0100           0
172205          C                  2030.0000      0.0000    393.7000    677.2701      1.0000      0.3742      0.9500      0.3000      0.1000      0.0500      0.0100           0
172107          C                  2030.0000      0.0000    309.1000    619.4863      1.0000      0.6594      0.9500      0.3000      0.1000      0.0500      0.0100           0
172205          C                  2030.0000      0.0000    393.7000    677.2701      1.0000      1.0023      0.9500      0.3000      0.1000      0.9500      0.0100           0
172107          C                  2030.0000      0.0000    309.1000    619.4863      1.0000      0.6190      0.9500      0.3000      0.1000      0.9500      0.0100           0
172113          A                  2030.0000      0.0000    248.8000    708.9323      1.0000      0.0650      0.9500      0.3000      0.1000      0.9500      0.0100           0
172136          A                  2030.0000      0.0000    135.2000    857.0502      1.0000      0.4265      0.9500      0.3000      0.1000      0.9500      0.0100           0
172123          C                  2030.0000      0.0000    377.6000    678.6580      1.0000      0.6041      0.9500      0.3000      0.1000      0.9500      0.0100           0
172205          C                  2030.0000      0.0000    393.7000    677.2701      1.0000      0.7294      0.9500      0.3000      0.1000      0.0500      0.0100           0
172107          C                  2030.0000      0.0000    309.1000    619.4863      1.0000      0.6775      0.9500      0.3000      0.1000      0.0500      0.0100           0
172113          A                  2030.0000      0.0000    248.8000    708.9323      1.0000      0.4051      0.9500      0.3000      0.1000      0.0500      0.0100           0
167956          C                  2000.0000      0.0000    249.3000    399.5722      1.0000      0.6239      0.9500      0.3000      0.1000      0.0500      0.0100           0
172136          A                  2030.0000      0.0000    135.2000    857.0502      1.0000      0.3316      0.9500      0.3000      0.1000      0.0500      0.0100           0
172187          A                  2030.0000      0.0000    129.9000    736.3116      1.0000      0.0650      0.9500      0.3000      0.1000      0.0500      0.0100           0
172123          C                  2030.0000      0.0000    377.6000    678.6580      1.0000      0.7339      0.9500      0.3000      0.1000      0.0500      0.0100           0
172113          A                  2030.0000      0.0000    248.8000    708.9323      1.0000      0.1839      0.9500      0.3000      0.1000      0.1000      0.0100           0
172107          C                  2030.0000      0.0000    309.1000    619.4863      1.0000      0.5115      0.9500      0.3000      0.1000      0.4000      0.0100           2
172136          A                  2030.0000      0.0000    135.2000    857.0502      1.0000      0.2146      0.9500      0.3000      0.1000      0.4000      0.0100           0
172187          A                  2030.0000      0.0000    129.9000    736.3116      1.0000      0.0650      0.9500      0.3000      0.1000      0.2000      0.0100           0
172136          A                  2030.0000      0.0000    135.2000    857.0502      1.0000      0.2081      0.9500      0.3000      0.1000      0.7000      0.0100           0
172113          A                  2030.0000      0.0000    248.8000    708.9323      1.0000      0.1030      0.9500      0.3000      0.1000      0.7000      0.0100           0
172123          C                  2030.0000      0.0000    377.6000    678.6580      1.0000      0.0650      0.9500      0.3000      0.1000      0.7000      0.0100           0
172187          A                  2030.0000      0.0000    129.9000    736.3116      1.0000      0.0650      0.9500      0.3000      0.1000      0.7000      0.0100           0
172136          A                  2030.0000      0.0000    135.2000    857.0502      1.0000      0.3900      0.9500      0.3000      0.1000      0.4000      0.0100           0
172187          A                  2030.0000      0.0000    129.9000    736.3116      1.0000      0.0650      0.9500      0.3000      0.1000      0.4000      0.0100           0
172123          C                  2030.0000      0.0000    377.6000    678.6580      1.0000      0.1401      0.9500      0.3000      0.1000      0.4000      0.0100           2
172136          A                  2030.0000      0.0000    135.2000    857.0502      1.0000      0.1698      0.9500      0.3000      0.1000      0.4000      0.0100           0
172142          A                  2030.0000      0.0000    205.8000    613.9092      1.0000      0.3789      0.9500      0.3000      0.1000      0.4000      0.0100           0
172136          A                  2030.0000      0.0000    135.2000    857.0502      1.0000      0.6881      0.9500      0.3000      0.1000      0.9500      0.0100           0
172123          C                  2030.0000      0.0000    377.6000    678.6580      1.0000      0.0650      0.9500      0.3000      0.1000      0.9500      0.0100           0
172142          A                  2030.0000      0.0000    205.8000    613.9092      1.0000      0.0650      0.9500      0.3000      0.1000      0.7000      0.0100           0
172136          A                  2030.0000      0.0000    135.2000    857.0502      1.0000      0.6432      0.9500      0.3000      0.1000      0.7000      0.0100           0
172136          A                  2030.0000      0.0000    135.2000    857.0502      1.0000      0.3509      0.9500      0.3000      0.1000      0.0500      0.0100           0
172142          A                  2030.0000      0.0000    205.8000    613.9092      1.0000      0.6543      0.9500      0.3000      0.1000      0.0500      0.0100           0
172123          C                  2030.0000      0.0000    377.6000    678.6580      1.0000      0.1264      0.9500      0.3000      0.1000      0.1000      0.0100           2
172142          A                  2030.0000      0.0000    205.8000    613.9092      1.0000      0.2900      0.9500      0.3000      0.1000      0.1000      0.0100           0
172136          A                  2030.0000      0.0000    135.2000    857.0502      1.0000      0.2934      0.9500      0.3000      0.1000      0.4000      0.0100           0
172123          C                  2030.0000      0.0000    377.6000    678.6580      1.0000      0.0650      0.9500      0.3000      0.1000      0.4000      0.0100           2
172123          C                  2030.0000      0.0000    377.6000    678.6580      1.0000      0.0650      0.9500      0.3000      0.1000      0.4000      0.0100           2
172123          C                  2030.0000      0.0000    377.6000    678.6580      1.0000      0.1979      0.9500      0.3000      0.1000      0.1000      0.0100           2
172106          C                  2030.0000      0.0000    307.5000    616.1705      1.0000      0.0700      0.9500      0.3000      0.1000      0.4000      0.0100           2
172136          A                  2030.0000      0.0000    135.2000    857.0502      1.0000      0.4984      0.9500      0.3000      0.1000      0.1000      0.0100           0
172123          C                  2030.0000      0.0000    377.6000    678.6580      1.0000      0.0790      0.9500      0.3000      0.1000      0.4000      0.0100           2
172136          A                  2030.0000      0.0000    135.2000    857.0502      1.0000      0.2035      0.9500      0.3000      0.1000      0.1000      0.0100           0
172106          C                  2030.0000      0.0000    307.5000    616.1705      1.0000      0.0650      0.9500      0.3000      0.1000      0.1000      0.0100           2
172123          C                  2030.0000      0.0000    377.6000    678.6580      1.0000      0.4053      0.9500      0.3000      0.1000      0.0500      0.0100           0
172151          B                  2030.0000      0.0000    372.6000    639.4822      1.0000      0.1530      0.9500      0.3000      0.1000      0.0500      0.0100           0
172107          C                  2030.0000      0.0000    309.1000    619.4863      1.0000      0.4415      0.9500      0.3000      0.1000      0.0500      0.0100           0
172113          A                  2030.0000      0.0000    248.8000    708.9323      1.0000      0.3495      0.9500      0.3000      0.1000      0.0500      0.0100           0
167956          C                  2000.0000      0.0000    249.3000    399.5722      1.0000      0.7545      0.9500      0.3000      0.1000      0.0500      0.0100           0
172106          C                  2030.0000      0.0000    307.5000    616.1705      1.0000      0.5782      0.9500      0.3000      0.1000      0.0500      0.0100           0
172204          C                  2030.0000      0.0000    386.5000    710.5571      1.0000      0.9060      0.9500      0.3000      0.1000      0.0500      0.0100           0
172203          C                  2030.0000      0.0000    384.5000    750.9713      1.0000      0.5718      0.9500      0.3000      0.1000      0.0500      0.0100           0
172145          B                  2030.0000      0.0000    340.9000    789.7982      1.0000      2.2712      0.9500      0.3000      0.1000      0.0500      0.0100           0
172136          A                  2030.0000      0.0000    135.2000    857.0502      1.0000      0.1647      0.9500      0.3000      0.1000      0.0500      0.0100           0
172151          B                  2030.0000      0.0000    372.6000    639.4822      1.0000      0.0650      0.9500      0.3000      0.1000      0.7000      0.0100           0
172123          C                  2030.0000      0.0000    377.6000    678.6580      1.0000      0.0650      0.9500      0.3000      0.1000      0.7000      0.0100           0
172113          A                  2030.0000      0.0000    248.8000    708.9323      1.0000      0.2796      0.9500      0.3000      0.1000      0.7000      0.0100           0
167956          C                  2000.0000      0.0000    249.3000    399.5722      1.0000      0.0650      0.9500      0.3000      0.1000      0.7000      0.0100           0
172107          C                  2030.0000      0.0000    309.1000    619.4863      1.0000      0.5870      0.9500      0.3000      0.1000      0.9500      0.0100           0
172123          C                  2030.0000      0.0000    377.6000    678.6580      1.0000      0.0965      0.9500      0.3000      0.1000      0.9500      0.0100           0
172151          B                  2030.0000      0.0000    372.6000    639.4822      1.0000      0.0650      0.9500      0.3000      0.1000      0.9500      0.0100           0
167956          C                  2000.0000      0.0000    249.3000    399.5722      1.0000      0.7479      0.9500      0.3000      0.1000      0.9500      0.0100           0
172106          C                  2030.0000      0.0000    307.5000    616.1705      1.0000      0.5159      0.9500      0.3000      0.1000      0.9500      0.0100           0
172113          A                  2030.0000      0.0000    248.8000    708.9323      1.0000      0.5552      0.9500      0.3000      0.1000      0.9500      0.0100           0
172203          C                  2030.0000      0.0000    384.5000    750.9713      1.0000      1.0668      0.9500      0.3000      0.1000      0.9500      0.0100           0
172204          C                  2030.0000      0.0000    386.5000    710.5571      1.0000      1.2862      0.9500      0.3000      0.1000      0.9500      0.0100           0
172145          B                  2030.0000      0.0000    340.9000    789.7982      1.0000      0.5020      0.9500      0.3000      0.1000      0.9500      0.0100           0
172205          C                  2030.0000      0.0000    393.7000    677.2701      1.0000      1.9649      0.9500      0.3000      0.1000      0.9500      0.0100           0
172151          B                  2030.0000      0.0000    372.6000    639.4822      1.0000      0.0650      0.9500      0.3000      0.1000      0.4000      0.0100           2
172123          C                  2030.0000      0.0000    377.6000    678.6580      1.0000      0.1783      0.9500      0.3000      0.1000      0.4000      0.0100           2
172113          A                  2030.0000      0.0000    248.8000    708.9323      1.0000      0.1108      0.9500      0.3000      0.1000      0.2000      0.0100           0
167956          C                  2000.0000      0.0000    249.3000    399.5722      1.0000      0.2402      0.9500      0.3000      0.1000      0.1000      0.0100           2
172106          C                  2030.0000      0.0000    307.5000    616.1705      1.0000      0.1941      0.9500      0.3000      0.1000      0.4000      0.0100           2
172107          C                  2030.0000      0.0000    309.1000    619.4863      1.0000      0.2045      0.9500      0.3000      0.1000      0.4000      0.0100           2
172113          A                  2030.0000      0.0000    248.8000    708.9323      1.0000      0.2861      0.9500      0.3000      0.1000      0.1000      0.0100           0
172107          C                  2030.0000      0.0000    309.1000    619.4863      1.0000      0.4664      0.9500      0.3000      0.1000      0.4000      0.0100           2
172151          B                  2030.0000      0.0000    372.6000    639.4822      1.0000      0.0650      0.9500      0.3000      0.1000      0.1000      0.0100           2
172107          C                  2030.0000      0.0000    309.1000    619.4863      1.0000      0.0650      0.9500      0.3000      0.1000      0.4000      0.0100           2
172107          C                  2030.0000      0.0000    309.1000    619.4863      1.0000      0.0792      0.9500      0.3000      0.1000      0.9500      0.0100           0
167956          C                  2000.0000      0.0000    249.3000    399.5722      1.0000      0.4113      0.9500      0.3000      0.1000      0.9500      0.0100           0
172203          C                  2030.0000      0.0000    384.5000    750.9713      1.0000      0.1638      0.9500      0.3000      0.1000      0.9500      0.0100           0
172145          B                  2030.0000      0.0000    340.9000    789.7982      1.0000      0.1056      0.9500      0.3000      0.1000      0.9500      0.0100           0
172204          C                  2030.0000      0.0000    386.5000    710.5571      1.0000      0.0650      0.9500      0.3000      0.1000      0.9500      0.0100           0
172107          C                  2030.0000      0.0000    309.1000    619.4863      1.0000      0.0650      0.9500      0.3000      0.1000      0.0500      0.0100           0
167956          C                  2000.0000      0.0000    249.3000    399.5722      1.0000      0.2793      0.9500      0.3000      0.1000      0.0500      0.0100           0
172106          C                  2030.0000      0.0000    307.5000    616.1705      1.0000      0.4077      0.9500      0.3000      0.1000      0.9500      0.0100           0
172130          C                  2030.0000      0.0000    292.8000    433.0612      1.0000      0.5233      0.9500      0.3000      0.1000      0.9500      0.0100           0
172107          C                  2030.0000      0.0000    309.1000    619.4863      1.0000      0.9829      0.9500      0.3000      0.1000      0.9500      0.0100           0
172204          C                  2030.0000      0.0000    386.5000    710.5571      1.0000      0.8021      0.9500      0.3000      0.1000      0.9500      0.0100           0
172145          B                  2030.0000      0.0000    340.9000    789.7982      1.0000      0.8267      0.9500      0.3000      0.1000      0.9500      0.0100           0
172106          C                  2030.0000      0.0000    307.5000    616.1705      1.0000      0.2199      0.9500      0.3000      0.1000      0.2000      0.0100           2
172106          C                  2030.0000      0.0000    307.5000    616.1705      1.0000      0.9638      0.9500      0.3000      0.1000      0.0500      0.0100           0
172204          C                  2030.0000      0.0000    386.5000    710.5571      1.0000      0.4651      0.9500      0.3000      0.1000      0.0500      0.0100           0
172107          C                  2030.0000      0.0000    309.1000    619.4863      1.0000      0.6276      0.9500      0.3000      0.1000      0.0500      0.0100           0
172145          B                  2030.0000      0.0000    340.9000    789.7982      1.0000      0.6321      0.9500      0.3000      0.1000      0.0500      0.0100           0
172204          C                  2030.0000      0.0000    386.5000    710.5571      1.0000      0.0650      0.9500      0.3000      0.1000      0.9500      0.0100           0
172145          B                  2030.0000      0.0000    340.9000    789.7982      1.0000      0.6658      0.9500      0.3000      0.1000      0.9500      0.0100           0
172204          C                  2030.0000      0.0000    386.5000    710.5571      1.0000      0.1255      0.9500      0.3000      0.1000      0.0500      0.0100           0
172145          B                  2030.0000      0.0000    340.9000    789.7982      1.0000      0.3104      0.9500      0.3000      0.1000      0.0500      0.0100           0
172204          C                  2030.0000      0.0000    386.5000    710.5571      1.0000      0.6168      0.9500      0.3000      0.1000      0.0500      0.0100           0
172106          C                  2030.0000      0.0000    307.5000    616.1705      1.0000      2.0435      0.9500      0.3000      0.1000      0.0500      0.0100           0
172145          B                  2030.0000      0.0000    340.9000    789.7982      1.0000      1.5397      0.9500      0.3000      0.1000      0.0500      0.0100           0
167956          C                  2000.0000      0.0000    249.3000    399.5722      1.0000      0.6968      0.9500      0.3000      0.1000      0.0500      0.0100           0
172205          C                  2030.0000      0.0000    393.7000    677.2701      1.0000      1.5121      0.9500      0.3000      0.1000      0.0500      0.0100           0
172113          A                  2030.0000      0.0000    248.8000    708.9323      1.0000      2.1237      0.9500      0.3000      0.1000      0.0500      0.0100           0
172204          C                  2030.0000      0.0000    386.5000    710.5571      1.0000      2.1321      0.9500      0.3000      0.1000      0.9500      0.0100           0
172145          B                  2030.0000      0.0000    340.9000    789.7982      1.0000      0.1041      0.9500      0.3000      0.1000      0.9500      0.0100           0
[...]
167956          C                  2000.0000      0.0000    249.3000    399.5722      1.0000      0.0650      0.9500      0.3000      0.1000      0.2000      0.0100           2
167956          C                  2000.0000      0.0000    249.3000    399.5722      1.0000      0.0650      0.9500      0.3000      0.1000      0.9500      0.0100           0
2996484         C                  2000.0000      0.0000    247.1000    362.2018      1.0000      0.2952      0.9500      0.3000      0.1000      0.4000      0.0100           2
2996484         C                  2000.0000      0.0000    247.1000    362.2018      1.0000      0.3341      0.9500      0.3000      0.1000      0.7000      0.0100           0
167956          C                  2000.0000      0.0000    249.3000    399.5722      1.0000      0.2967      0.9500      0.3000      0.1000      0.4000      0.0100           2
2996484         C                  2000.0000      0.0000    247.1000    362.2018      1.0000      0.4520      0.9500      0.3000      0.1000      0.2000      0.0100           2
167956          C                  2000.0000      0.0000    249.3000    399.5722      1.0000      0.6699      0.9500      0.3000      0.1000      0.9500      0.0100           0
167956          C                  2000.0000      0.0000    249.3000    399.5722      1.0000      0.2382      0.9500      0.3000      0.1000      0.7000      0.0100           0
2996484         C                  2000.0000      0.0000    247.1000    362.2018      1.0000      0.6198      0.9500      0.3000      0.1000      0.7000      0.0100           0
167957          C                  2000.0000      0.0000    246.6000    391.8919      1.0000      0.4829      0.9500      0.3000      0.1000      0.7000      0.0100           0
167956          C                  2000.0000      0.0000    249.3000    399.5722      1.0000      0.3923      0.9500      0.3000      0.1000      0.0500      0.0100           0
2996484         C                  2000.0000      0.0000    247.1000    362.2018      1.0000      0.3882      0.9500      0.3000      0.1000      0.0500      0.0100           0
2996484         C                  2000.0000      0.0000    247.1000    362.2018      1.0000      0.2392      0.9500      0.3000      0.1000      0.0500      0.0100           0
2996484         C                  2000.0000      0.0000    247.1000    362.2018      1.0000      0.1171      0.9500      0.3000      0.1000      0.7000      0.0100           0
167957          C                  2000.0000      0.0000    246.6000    391.8919      1.0000      0.1669      0.9500      0.3000      0.1000      0.7000      0.0100           0
2996484         C                  2000.0000      0.0000    247.1000    362.2018      1.0000      0.0650      0.9500      0.3000      0.1000      0.2000      0.0100           2
2996484         C                  2000.0000      0.0000    247.1000    362.2018      1.0000      0.1752      0.9500      0.3000      0.1000      0.4000      0.0100           2
167956          C                  2000.0000      0.0000    249.3000    399.5722      1.0000      0.1332      0.9500      0.3000      0.1000      0.4000      0.0100           2
167956          C                  2000.0000      0.0000    249.3000    399.5722      1.0000      0.1522      0.9500      0.3000      0.1000      0.9500      0.0100           0
167956          C                  2000.0000      0.0000    249.3000    399.5722      1.0000      0.0737      0.9500      0.3000      0.1000      0.4000      0.0100           2
167956          C                  2000.0000      0.0000    249.3000    399.5722      1.0000      0.1615      0.9500      0.3000      0.1000      0.7000      0.0100           0
2996484         C                  2000.0000      0.0000    247.1000    362.2018      1.0000      0.3504      0.9500      0.3000      0.1000      0.4000      0.0100           2
167956          C                  2000.0000      0.0000    249.3000    399.5722      1.0000      0.2344      0.9500      0.3000      0.1000      0.4000      0.0100           2
167956          C                  2000.0000      0.0000    249.3000    399.5722      1.0000      0.2817      0.9500      0.3000      0.1000      0.4000      0.0100           2
2996484         C                  2000.0000      0.0000    247.1000    362.2018      1.0000      0.3635      0.9500      0.3000      0.1000      0.4000      0.0100           2
167956          C                  2000.0000      0.0000    249.3000    399.5722      1.0000      0.2641      0.9500      0.3000      0.1000      0.9500      0.0100           0
167956          C                  2000.0000      0.0000    249.3000    399.5722      1.0000      0.1545      0.9500      0.3000      0.1000      0.7000      0.0100           0
2996484         C                  2000.0000      0.0000    247.1000    362.2018      1.0000      0.5689      0.9500      0.3000      0.1000      0.7000      0.0100           0
167956          C                  2000.0000      0.0000    249.3000    399.5722      1.0000      0.5736      0.9500      0.3000      0.1000      0.0500      0.0100           0
167956          C                  2000.0000      0.0000    249.3000    399.5722      1.0000      0.3193      0.9500      0.3000      0.1000      0.7000      0.0100           0
167957          C                  2000.0000      0.0000    246.6000    391.8919      1.0000      0.4075      0.9500      0.3000      0.1000      0.7000      0.0100           0
167956          C                  2000.0000      0.0000    249.3000    399.5722      1.0000      0.2068      0.9500      0.3000      0.1000      0.4000      0.0100           2
167957          C                  2000.0000      0.0000    246.6000    391.8919      1.0000      0.7139      0.9500      0.3000      0.1000      0.4000      0.0100           2
167956          C                  2000.0000      0.0000    249.3000    399.5722      1.0000      0.1768      0.9500      0.3000      0.1000      0.0500      0.0100           0
167957          C                  2000.0000      0.0000    246.6000    391.8919      1.0000      0.5838      0.9500      0.3000      0.1000      0.1000      0.0100           2
167956          C                  2000.0000      0.0000    249.3000    399.5722      1.0000      0.4732      0.9500      0.3000      0.1000      0.4000      0.0100           2
167957          C                  2000.0000      0.0000    246.6000    391.8919      1.0000      0.1585      0.9500      0.3000      0.1000      0.7000      0.0100           0
167956          C                  2000.0000      0.0000    249.3000    399.5722      1.0000      0.0650      0.9500      0.3000      0.1000      0.7000      0.0100           0
2996484         C                  2000.0000      0.0000    247.1000    362.2018      1.0000      0.5984      0.9500      0.3000      0.1000      0.7000      0.0100           0
167956          C                  2000.0000      0.0000    249.3000    399.5722      1.0000      0.4275      0.9500      0.3000      0.1000      0.7000      0.0100           0
167957          C                  2000.0000      0.0000    246.6000    391.8919      1.0000      0.3862      0.9500      0.3000      0.1000      0.7000      0.0100           0
2996484         C                  2000.0000      0.0000    247.1000    362.2018      1.0000      0.7229      0.9500      0.3000      0.1000      0.0500      0.0100           0
167957          C                  2000.0000      0.0000    246.6000    391.8919      1.0000      0.6803      0.9500      0.3000      0.1000      0.0500      0.0100           0
167956          C                  2000.0000      0.0000    249.3000    399.5722      1.0000      0.4185      0.9500      0.3000      0.1000      0.0500      0.0100           0
2996484         C                  2000.0000      0.0000    247.1000    362.2018      1.0000      0.5554      0.9500      0.3000      0.1000      0.4000      0.0100           2
167956          C                  2000.0000      0.0000    249.3000    399.5722      1.0000      0.2790      0.9500      0.3000      0.1000      0.1000      0.0100           2
167957          C                  2000.0000      0.0000    246.6000    391.8919      1.0000      0.4106      0.9500      0.3000      0.1000      0.2000      0.0100           2
2996484         C                  2000.0000      0.0000    247.1000    362.2018      1.0000      0.3902      0.9500      0.3000      0.1000      0.9500      0.0100           0
167957          C                  2000.0000      0.0000    246.6000    391.8919      1.0000      0.5054      0.9500      0.3000      0.1000      0.9500      0.0100           0
167956          C                  2000.0000      0.0000    249.3000    399.5722      1.0000      0.3429      0.9500      0.3000      0.1000      0.9500      0.0100           0
2996484         C                  2000.0000      0.0000    247.1000    362.2018      1.0000      0.4069      0.9500      0.3000      0.1000      0.4000      0.0100           2
167956          C                  2000.0000      0.0000    249.3000    399.5722      1.0000      0.5623      0.9500      0.3000      0.1000      0.1000      0.0100           2
167957          C                  2000.0000      0.0000    246.6000    391.8919      1.0000      0.4415      0.9500      0.3000      0.1000      0.2000      0.0100           2
2996484         C                  2000.0000      0.0000    247.1000    362.2018      1.0000      0.1558      0.9500      0.3000      0.1000      0.7000      0.0100           0
167957          C                  2000.0000      0.0000    246.6000    391.8919      1.0000      0.1135      0.9500      0.3000      0.1000      0.7000      0.0100           0
2996484         C                  2000.0000      0.0000    247.1000    362.2018      1.0000      0.4235      0.9500      0.3000      0.1000      0.9500      0.0100           0
167957          C                  2000.0000      0.0000    246.6000    391.8919      1.0000      0.2180      0.9500      0.3000      0.1000      0.9500      0.0100           0
2996484         C                  2000.0000      0.0000    247.1000    362.2018      1.0000      0.0650      0.9500      0.3000      0.1000      0.4000      0.0100           2
167957          C                  2000.0000      0.0000    246.6000    391.8919      1.0000      0.1617      0.9500      0.3000      0.1000      0.4000      0.0100           2
167957          C                  2000.0000      0.0000    246.6000    391.8919      1.0000      0.1499      0.9500      0.3000      0.1000      0.7000      0.0100           0
167957          C                  2000.0000      0.0000    246.6000    391.8919      1.0000      0.4515      0.9500      0.3000      0.1000      0.7000      0.0100           0
167956          C                  2000.0000      0.0000    249.3000    399.5722      1.0000      0.4350      0.9500      0.3000      0.1000      0.7000      0.0100           0
167956          C                  2000.0000      0.0000    249.3000    399.5722      1.0000      0.1419      0.9500      0.3000      0.1000      0.4000      0.0100           2
167957          C                  2000.0000      0.0000    246.6000    391.8919      1.0000      0.5041      0.9500      0.3000      0.1000      0.2000      0.0100           2
167956          C                  2000.0000      0.0000    249.3000    399.5722      1.0000      0.0650      0.9500      0.3000      0.1000      0.9500      0.0100           0
167957          C                  2000.0000      0.0000    246.6000    391.8919      1.0000      0.2775      0.9500      0.3000      0.1000      0.4000      0.0100           2
167956          C                  2000.0000      0.0000    249.3000    399.5722      1.0000      0.4137      0.9500      0.3000      0.1000      0.4000      0.0100           2
167956          C                  2000.0000      0.0000    249.3000    399.5722      1.0000      0.4480      0.9500      0.3000      0.1000      0.7000      0.0100           0
167957          C                  2000.0000      0.0000    246.6000    391.8919      1.0000      0.4440      0.9500      0.3000      0.1000      0.7000      0.0100           0
167956          C                  2000.0000      0.0000    249.3000    399.5722      1.0000      0.2502      0.9500      0.3000      0.1000      0.4000      0.0100           2
167957          C                  2000.0000      0.0000    246.6000    391.8919      1.0000      0.4301      0.9500      0.3000      0.1000      0.4000      0.0100           2
2996484         C                  2000.0000      0.0000    247.1000    362.2018      1.0000      0.1989      0.9500      0.3000      0.1000      0.2000      0.0100           2
167956          C                  2000.0000      0.0000    249.3000    399.5722      1.0000      0.2399      0.9500      0.3000      0.1000      0.4000      0.0100           2
167956          C                  2000.0000      0.0000    249.3000    399.5722      1.0000      0.2085      0.9500      0.3000      0.1000      0.9500      0.0100           0
167957          C                  2000.0000      0.0000    246.6000    391.8919      1.0000      0.1656      0.9500      0.3000      0.1000      0.7000      0.0100           0
167957          C                  2000.0000      0.0000    246.6000    391.8919      1.0000      0.2874      0.9500      0.3000      0.1000      0.7000      0.0100           0
167957          C                  2000.0000      0.0000    246.6000    391.8919      1.0000      0.0846      0.9500      0.3000      0.1000      0.4000      0.0100           2
167957          C                  2000.0000      0.0000    246.6000    391.8919      1.0000      0.3749      0.9500      0.3000      0.1000      0.7000      0.0100           0
167957          C                  2000.0000      0.0000    246.6000    391.8919      1.0000      0.4473      0.9500      0.3000      0.1000      0.4000      0.0100           2
167956          C                  2000.0000      0.0000    249.3000    399.5722      1.0000      0.2238      0.9500      0.3000      0.1000      0.4000      0.0100           2
167971          C                  1520.0000      0.0000    181.9000    248.1566      1.0000      0.0772      0.9500      0.3000      0.1000      0.4000      0.0100           2
167956          C                  2000.0000      0.0000    249.3000    399.5722      1.0000      0.2569      0.9500      0.3000      0.1000      0.4000      0.0100           2
167956          C                  2000.0000      0.0000    249.3000    399.5722      1.0000      0.2597      0.9500      0.3000      0.1000      0.9500      0.0100           0
167971          C                  1520.0000      0.0000    181.9000    248.1566      1.0000      0.2698      0.9500      0.3000      0.1000      0.9500      0.0100           0
167956          C                  2000.0000      0.0000    249.3000    399.5722      1.0000      0.2897      0.9500      0.3000      0.1000      0.7000      0.0100           0
167957          C                  2000.0000      0.0000    246.6000    391.8919      1.0000      0.4916      0.9500      0.3000      0.1000      0.7000      0.0100           0
167956          C                  2000.0000      0.0000    249.3000    399.5722      1.0000      0.3506      0.9500      0.3000      0.1000      0.0500      0.0100           0
167957          C                  2000.0000      0.0000    246.6000    391.8919      1.0000      0.4395      0.9500      0.3000      0.1000      0.0500      0.0100           0
167956          C                  2000.0000      0.0000    249.3000    399.5722      1.0000      0.2733      0.9500      0.3000      0.1000      0.4000      0.0100           2
167957          C                  2000.0000      0.0000    246.6000    391.8919      1.0000      0.1560      0.9500      0.3000      0.1000      0.4000      0.0100           2
167957          C                  2000.0000      0.0000    246.6000    391.8919      1.0000      0.4953      0.9500      0.3000      0.1000      0.9500      0.0100           0
167956          C                  2000.0000      0.0000    249.3000    399.5722      1.0000      0.2478      0.9500      0.3000      0.1000      0.9500      0.0100           0
167971          C                  1520.0000      0.0000    181.9000    248.1566      1.0000      0.3571      0.9500      0.3000      0.1000      0.9500      0.0100           0
167957          C                  2000.0000      0.0000    246.6000    391.8919      1.0000      0.1563      0.9500      0.3000      0.1000      0.7000      0.0100           0
167956          C                  2000.0000      0.0000    249.3000    399.5722      1.0000      0.1463      0.9500      0.3000      0.1000      0.7000      0.0100           0
167957          C                  2000.0000      0.0000    246.6000    391.8919      1.0000      0.2465      0.9500      0.3000      0.1000      0.0500      0.0100           0
167956          C                  2000.0000      0.0000    249.3000    399.5722      1.0000      0.0865      0.9500      0.3000      0.1000      0.4000      0.0100           2
167957          C                  2000.0000      0.0000    246.6000    391.8919      1.0000      0.1333      0.9500      0.3000      0.1000      0.7000      0.0100           0
167956          C                  2000.0000      0.0000    249.3000    399.5722      1.0000      0.1017      0.9500      0.3000      0.1000      0.7000      0.0100           0
167957          C                  2000.0000      0.0000    246.6000    391.8919      1.0000      0.0904      0.9500      0.3000      0.1000      0.1000      0.0100           2
167956          C                  2000.0000      0.0000    249.3000    399.5722      1.0000      0.1635      0.9500      0.3000      0.1000      0.4000      0.0100           2
167957          C                  2000.0000      0.0000    246.6000    391.8919      1.0000      0.2373      0.9500      0.3000      0.1000      0.9500      0.0100           0
167956          C                  2000.0000      0.0000    249.3000    399.5722      1.0000      0.0650      0.9500      0.3000      0.1000      0.9500      0.0100           0
167957          C                  2000.0000      0.0000    246.6000    391.8919      1.0000      0.4308      0.9500      0.3000      0.1000      0.7000      0.0100           0
167956          C                  2000.0000      0.0000    249.3000    399.5722      1.0000      0.3531      0.9500      0.3000      0.1000      0.7000      0.0100           0
167956          C                  2000.0000      0.0000    249.3000    399.5722      1.0000      0.2496      0.9500      0.3000      0.1000      0.4000      0.0100           2
167957          C                  2000.0000      0.0000    246.6000    391.8919      1.0000      0.2838      0.9500      0.3000      0.1000      0.4000      0.0100           2
167956          C                  2000.0000      0.0000    249.3000    399.5722      1.0000      0.3992      0.9500      0.3000      0.1000      0.0500      0.0100           0
167957          C                  2000.0000      0.0000    246.6000    391.8919      1.0000      0.7406      0.9500      0.3000      0.1000      0.0500      0.0100           0
167957          C                  2000.0000      0.0000    246.6000    391.8919      1.0000      0.5391      0.9500      0.3000      0.1000      0.9500      0.0100           0
167956          C                  2000.0000      0.0000    249.3000    399.5722      1.0000      0.3270      0.9500      0.3000      0.1000      0.9500      0.0100           0
167956          C                  2000.0000      0.0000    249.3000    399.5722      1.0000      0.2840      0.9500      0.3000      0.1000      0.1000      0.0100           2
