 ParallelLakes_decHRUfixDE SWAT+ Nov 8 2022    MODULAR Rev 2020.60.5.5                                    
            e     s     p  peak_r   k_fac      slope          length   ls_factor    p_factor    c_factor       rsd_m  rsd_pctcov    rsd_cfac    can_lai3    can_hgt     can_cfac 
                                m                m/m               m                                           kg/ha     percent                                   m             
