recall.rec: written by SWAT+ editor v2.0.4 on 2022-01-21 12:23
      id  name               rec_typ  file              
       1  pt013                    4  pt013             
       2  pt024                    4  pt024             
       3  pt026                    4  pt026             
       4  pt029                    4  pt029             
       5  pt033                    4  pt033             
       6  pt034                    4  pt034             
       7  pt036                    4  pt036             
       8  pt038                    4  pt038             
       9  pt039                    4  pt039             
      10  pt041                    4  pt041             
      11  pt043                    4  pt043             
      12  pt045                    4  pt045             
      13  pt047                    4  pt047             
      14  pt048                    4  pt048             
      15  pt050                    4  pt050             
      16  pt051                    4  pt051             
      17  pt053                    4  pt053             
      18  pt055                    4  pt055             
      19  pt057                    4  pt057             
      20  pt059                    4  pt059             
      21  pt061                    4  pt061             
      22  pt063                    4  pt063             
      23  pt065                    4  pt065             
      24  pt067                    4  pt067             
      25  pt069                    4  pt069             
      26  pt071                    4  pt071             
      27  pt073                    4  pt073             
      28  pt075                    4  pt075             
      29  pt077                    4  pt077             
      30  pt079                    4  pt079             
      31  pt081                    4  pt081             
      32  pt083                    4  pt083             
      33  pt085                    4  pt085             
      34  pt087                    4  pt087             
      35  pt089                    4  pt089             
      36  pt091                    4  pt091             
      37  pt093                    4  pt093             
      38  pt095                    4  pt095             
      39  pt096                    4  pt096             
      40  pt098                    4  pt098             
      41  pt100                    4  pt100             
      42  pt102                    4  pt102             
      43  pt104                    4  pt104             
      44  pt106                    4  pt106             
      45  pt108                    4  pt108             
      46  pt110                    4  pt110             
      47  pt112                    4  pt112             
      48  pt114                    4  pt114             
      49  pt116                    4  pt116             
      50  pt118                    4  pt118             
      51  pt120                    4  pt120             
      52  pt122                    4  pt122             
      53  pt124                    4  pt124             
      54  pt126                    4  pt126             
      55  pt128                    4  pt128             
      56  pt130                    4  pt130             
      57  pt132                    4  pt132             
      58  pt134                    4  pt134             
      59  pt136                    4  pt136             
      60  pt138                    4  pt138             
      61  pt140                    4  pt140             
      62  pt142                    4  pt142             
      63  pt144                    4  pt144             
      64  pt146                    4  pt146             
      65  pt148                    4  pt148             
      66  pt150                    4  pt150             
      67  pt152                    4  pt152             
      68  pt154                    4  pt154             
      69  pt156                    4  pt156             
      70  pt158                    4  pt158             
      71  pt160                    4  pt160             
      72  pt162                    4  pt162             
      73  pt164                    4  pt164             
      74  pt166                    4  pt166             
      75  pt168                    4  pt168             
      76  pt170                    4  pt170             
      77  pt172                    4  pt172             
      78  pt174                    4  pt174             
      79  pt176                    4  pt176             
      80  pt178                    4  pt178             
      81  pt180                    4  pt180             
      82  pt182                    4  pt182             
      83  pt184                    4  pt184             
      84  pt186                    4  pt186             
      85  pt188                    4  pt188             
      86  pt190                    4  pt190             
      87  pt192                    4  pt192             
      88  pt194                    4  pt194             
      89  pt196                    4  pt196             
      90  pt198                    4  pt198             
      91  pt200                    4  pt200             
      92  pt202                    4  pt202             
      93  pt204                    4  pt204             
      94  pt206                    4  pt206             
      95  pt208                    4  pt208             
      96  pt210                    4  pt210             
      97  pt212                    4  pt212             
      98  pt214                    4  pt214             
      99  pt215                    4  pt215             
     100  pt217                    4  pt217             
     101  pt219                    4  pt219             
     102  pt221                    4  pt221             
     103  pt223                    4  pt223             
     104  pt225                    4  pt225             
     105  pt227                    4  pt227             
     106  pt229                    4  pt229             
     107  pt231                    4  pt231             
     108  pt233                    4  pt233             
     109  pt235                    4  pt235             
     110  pt237                    4  pt237             
     111  pt239                    4  pt239             
     112  pt241                    4  pt241             
     113  pt243                    4  pt243             
     114  pt245                    4  pt245             
     115  pt247                    4  pt247             
     116  pt249                    4  pt249             
     117  pt251                    4  pt251             
     118  pt253                    4  pt253             
     119  pt255                    4  pt255             
     120  pt257                    4  pt257             
     121  pt259                    4  pt259             
     122  pt261                    4  pt261             
     123  pt263                    4  pt263             
     124  pt265                    4  pt265             
     125  pt267                    4  pt267             
     126  pt269                    4  pt269             
     127  pt271                    4  pt271             
     128  pt273                    4  pt273             
     129  pt275                    4  pt275             
     130  pt277                    4  pt277             
     131  pt279                    4  pt279             
     132  pt281                    4  pt281             
     133  pt283                    4  pt283             
     134  pt285                    4  pt285             
     135  pt287                    4  pt287             
     136  pt289                    4  pt289             
     137  pt291                    4  pt291             
     138  pt293                    4  pt293             
     139  pt295                    4  pt295             
     140  pt297                    4  pt297             
     141  pt299                    4  pt299             
     142  pt301                    4  pt301             
     143  pt303                    4  pt303             
     144  pt305                    4  pt305             
     145  pt307                    4  pt307             
     146  pt309                    4  pt309             
     147  pt311                    4  pt311             
     148  pt313                    4  pt313             
     149  pt315                    4  pt315             
     150  pt317                    4  pt317             
     151  pt319                    4  pt319             
     152  pt321                    4  pt321             
     153  pt323                    4  pt323             
     154  pt325                    4  pt325             
     155  pt327                    4  pt327             
     156  pt329                    4  pt329             
     157  pt331                    4  pt331             
     158  pt333                    4  pt333             
     159  pt335                    4  pt335             
     160  pt337                    4  pt337             
     161  pt339                    4  pt339             
     162  pt341                    4  pt341             
     163  pt343                    4  pt343             
     164  pt345                    4  pt345             
     165  pt347                    4  pt347             
     166  pt349                    4  pt349             
     167  pt351                    4  pt351             
     168  pt353                    4  pt353             
     169  pt355                    4  pt355             
     170  pt357                    4  pt357             
     171  pt359                    4  pt359             
     172  pt361                    4  pt361             
     173  pt363                    4  pt363             
     174  pt365                    4  pt365             
     175  pt367                    4  pt367             
     176  pt369                    4  pt369             
     177  pt371                    4  pt371             
     178  pt373                    4  pt373             
     179  pt375                    4  pt375             
     180  pt377                    4  pt377             
     181  pt379                    4  pt379             
     182  pt381                    4  pt381             
     183  pt383                    4  pt383             
     184  pt385                    4  pt385             
     185  pt387                    4  pt387             
     186  pt389                    4  pt389             
     187  pt391                    4  pt391             
     188  pt393                    4  pt393             
     189  pt395                    4  pt395             
     190  pt397                    4  pt397             
     191  pt399                    4  pt399             
     192  pt401                    4  pt401             
     193  pt403                    4  pt403             
     194  pt405                    4  pt405             
     195  pt407                    4  pt407             
     196  pt409                    4  pt409             
     197  pt411                    4  pt411             
     198  pt413                    4  pt413             
     199  pt415                    4  pt415             
     200  pt417                    4  pt417             
     201  pt419                    4  pt419             
     202  pt421                    4  pt421             
     203  pt423                    4  pt423             
     204  pt425                    4  pt425             
     205  pt427                    4  pt427             
     206  pt429                    4  pt429             
     207  pt431                    4  pt431             
     208  pt433                    4  pt433             
     209  pt435                    4  pt435             
     210  pt437                    4  pt437             
     211  pt439                    4  pt439             
     212  pt441                    4  pt441             
     213  pt443                    4  pt443             
     214  pt445                    4  pt445             
     215  pt447                    4  pt447             
     216  pt449                    4  pt449             
     217  pt451                    4  pt451             
     218  pt453                    4  pt453             
     219  pt455                    4  pt455             
     220  pt457                    4  pt457             
     221  pt459                    4  pt459             
     222  pt461                    4  pt461             
     223  pt463                    4  pt463             
     224  pt465                    4  pt465             
     225  pt467                    4  pt467             
     226  pt469                    4  pt469             
     227  pt471                    4  pt471             
     228  pt473                    4  pt473             
     229  pt475                    4  pt475             
     230  pt477                    4  pt477             
     231  pt479                    4  pt479             
     232  pt481                    4  pt481             
     233  pt483                    4  pt483             
     234  pt485                    4  pt485             
     235  pt487                    4  pt487             
     236  pt489                    4  pt489             
     237  pt491                    4  pt491             
     238  pt493                    4  pt493             
     239  pt495                    4  pt495             
     240  pt497                    4  pt497             
     241  pt499                    4  pt499             
     242  pt501                    4  pt501             
     243  pt503                    4  pt503             
     244  pt505                    4  pt505             
     245  pt507                    4  pt507             
     246  pt509                    4  pt509             
     247  pt511                    4  pt511             
     248  pt513                    4  pt513             
     249  pt515                    4  pt515             
     250  pt517                    4  pt517             
     251  pt519                    4  pt519             
     252  pt521                    4  pt521             
     253  pt523                    4  pt523             
     254  pt525                    4  pt525             
     255  pt527                    4  pt527             
     256  pt529                    4  pt529             
     257  pt531                    4  pt531             
     258  pt533                    4  pt533             
     259  pt535                    4  pt535             
     260  pt537                    4  pt537             
     261  pt539                    4  pt539             
     262  pt541                    4  pt541             
     263  pt543                    4  pt543             
     264  pt545                    4  pt545             
     265  pt547                    4  pt547             
     266  pt549                    4  pt549             
     267  pt551                    4  pt551             
     268  pt553                    4  pt553             
     269  pt555                    4  pt555             
     270  pt557                    4  pt557             
     271  pt559                    4  pt559             
     272  pt561                    4  pt561             
     273  pt563                    4  pt563             
     274  pt565                    4  pt565             
     275  pt567                    4  pt567             
     276  pt569                    4  pt569             
     277  pt571                    4  pt571             
     278  pt573                    4  pt573             
     279  pt575                    4  pt575             
     280  pt577                    4  pt577             
     281  pt579                    4  pt579             
     282  pt581                    4  pt581             
     283  pt583                    4  pt583             
     284  pt585                    4  pt585             
     285  pt587                    4  pt587             
     286  pt589                    4  pt589             
     287  pt591                    4  pt591             
     288  pt593                    4  pt593             
     289  pt595                    4  pt595             
     290  pt597                    4  pt597             
     291  pt599                    4  pt599             
     292  pt601                    4  pt601             
     293  pt603                    4  pt603             
     294  pt605                    4  pt605             
     295  pt607                    4  pt607             
     296  pt609                    4  pt609             
     297  pt611                    4  pt611             
     298  pt613                    4  pt613             
     299  pt615                    4  pt615             
     300  pt617                    4  pt617             
     301  pt619                    4  pt619             
     302  pt621                    4  pt621             
     303  pt623                    4  pt623             
     304  pt625                    4  pt625             
     305  pt627                    4  pt627             
     306  pt629                    4  pt629             
     307  pt631                    4  pt631             
     308  pt633                    4  pt633             
     309  pt635                    4  pt635             
     310  pt637                    4  pt637             
     311  pt639                    4  pt639             
     312  pt641                    4  pt641             
     313  pt643                    4  pt643             
     314  pt645                    4  pt645             
     315  pt647                    4  pt647             
     316  pt649                    4  pt649             
     317  pt651                    4  pt651             
     318  pt653                    4  pt653             
     319  pt655                    4  pt655             
     320  pt657                    4  pt657             
     321  pt659                    4  pt659             
     322  pt661                    4  pt661             
     323  pt663                    4  pt663             
     324  pt665                    4  pt665             
     325  pt667                    4  pt667             
     326  pt669                    4  pt669             
     327  pt671                    4  pt671             
     328  pt673                    4  pt673             
     329  pt675                    4  pt675             
     330  pt677                    4  pt677             
     331  pt679                    4  pt679             
     332  pt681                    4  pt681             
     333  pt683                    4  pt683             
     334  pt685                    4  pt685             
     335  pt687                    4  pt687             
     336  pt689                    4  pt689             
     337  pt691                    4  pt691             
     338  pt693                    4  pt693             
     339  pt695                    4  pt695             
     340  pt697                    4  pt697             
     341  pt699                    4  pt699             
     342  pt701                    4  pt701             
     343  pt703                    4  pt703             
     344  pt705                    4  pt705             
     345  pt707                    4  pt707             
     346  pt709                    4  pt709             
     347  pt711                    4  pt711             
     348  pt713                    4  pt713             
     349  pt715                    4  pt715             
     350  pt717                    4  pt717             
     351  pt719                    4  pt719             
     352  pt721                    4  pt721             
     353  pt723                    4  pt723             
     354  pt725                    4  pt725             
     355  pt727                    4  pt727             
     356  pt729                    4  pt729             
     357  pt731                    4  pt731             
     358  pt733                    4  pt733             
     359  pt735                    4  pt735             
     360  pt737                    4  pt737             
     361  pt739                    4  pt739             
     362  pt741                    4  pt741             
     363  pt743                    4  pt743             
     364  pt745                    4  pt745             
     365  pt747                    4  pt747             
     366  pt749                    4  pt749             
     367  pt751                    4  pt751             
     368  pt753                    4  pt753             
     369  pt755                    4  pt755             
     370  pt757                    4  pt757             
     371  pt759                    4  pt759             
     372  pt761                    4  pt761             
     373  pt763                    4  pt763             
     374  pt765                    4  pt765             
     375  pt767                    4  pt767             
