                   SWAT+               
             Revision 60.5.5          
      Soil & Water Assessment Tool    
               PC Version             
    Program reading . . . executing


  Date of Sim   2/10/2023 Time  14:37: 7
 reading from precipitation file         Time  14:37: 7
 reading from temperature file           Time  14:37: 7
 reading from solar radiation file       Time  14:37: 7
 reading from relative humidity file     Time  14:37: 7
 reading from wind file                  Time  14:37: 7
 reading from wgn file                   Time  14:37: 7
 reading from wx station file            Time  14:37: 7
  Original Simulation        1   1  2008 Yr    1 of    1 Time  14:38: 5
  Original Simulation        1   2  2008 Yr    1 of    1 Time  14:38: 5
  Original Simulation        1   3  2008 Yr    1 of    1 Time  14:38: 5
  Original Simulation        1   4  2008 Yr    1 of    1 Time  14:38: 5
  Original Simulation        1   5  2008 Yr    1 of    1 Time  14:38: 5
  Original Simulation        1   6  2008 Yr    1 of    1 Time  14:38: 5
  Original Simulation        1   7  2008 Yr    1 of    1 Time  14:38: 5
  Original Simulation        1   8  2008 Yr    1 of    1 Time  14:38: 5
  Original Simulation        1   9  2008 Yr    1 of    1 Time  14:38: 6
  Original Simulation        1  10  2008 Yr    1 of    1 Time  14:38: 6
  Original Simulation        1  11  2008 Yr    1 of    1 Time  14:38: 6
  Original Simulation        1  12  2008 Yr    1 of    1 Time  14:38: 6
  Original Simulation        1  13  2008 Yr    1 of    1 Time  14:38: 6
  Original Simulation        1  14  2008 Yr    1 of    1 Time  14:38: 6
  Original Simulation        1  15  2008 Yr    1 of    1 Time  14:38: 6
  Original Simulation        1  16  2008 Yr    1 of    1 Time  14:38: 6
  Original Simulation        1  17  2008 Yr    1 of    1 Time  14:38: 6
  Original Simulation        1  18  2008 Yr    1 of    1 Time  14:38: 6
  Original Simulation        1  19  2008 Yr    1 of    1 Time  14:38: 7
  Original Simulation        1  20  2008 Yr    1 of    1 Time  14:38: 7
  Original Simulation        1  21  2008 Yr    1 of    1 Time  14:38: 7
  Original Simulation        1  22  2008 Yr    1 of    1 Time  14:38: 7
  Original Simulation        1  23  2008 Yr    1 of    1 Time  14:38: 7
  Original Simulation        1  24  2008 Yr    1 of    1 Time  14:38: 7
  Original Simulation        1  25  2008 Yr    1 of    1 Time  14:38: 7
  Original Simulation        1  26  2008 Yr    1 of    1 Time  14:38: 7
  Original Simulation        1  27  2008 Yr    1 of    1 Time  14:38: 7
  Original Simulation        1  28  2008 Yr    1 of    1 Time  14:38: 7
  Original Simulation        1  29  2008 Yr    1 of    1 Time  14:38: 8
  Original Simulation        1  30  2008 Yr    1 of    1 Time  14:38: 8
  Original Simulation        1  31  2008 Yr    1 of    1 Time  14:38: 8
  Original Simulation        2   1  2008 Yr    1 of    1 Time  14:38: 8
  Original Simulation        2   2  2008 Yr    1 of    1 Time  14:38: 8
  Original Simulation        2   3  2008 Yr    1 of    1 Time  14:38: 8
  Original Simulation        2   4  2008 Yr    1 of    1 Time  14:38: 8
  Original Simulation        2   5  2008 Yr    1 of    1 Time  14:38: 8
  Original Simulation        2   6  2008 Yr    1 of    1 Time  14:38: 8
  Original Simulation        2   7  2008 Yr    1 of    1 Time  14:38: 9
  Original Simulation        2   8  2008 Yr    1 of    1 Time  14:38: 9
  Original Simulation        2   9  2008 Yr    1 of    1 Time  14:38: 9
  Original Simulation        2  10  2008 Yr    1 of    1 Time  14:38: 9
  Original Simulation        2  11  2008 Yr    1 of    1 Time  14:38: 9
  Original Simulation        2  12  2008 Yr    1 of    1 Time  14:38: 9
  Original Simulation        2  13  2008 Yr    1 of    1 Time  14:38: 9
  Original Simulation        2  14  2008 Yr    1 of    1 Time  14:38: 9
  Original Simulation        2  15  2008 Yr    1 of    1 Time  14:38: 9
  Original Simulation        2  16  2008 Yr    1 of    1 Time  14:38: 9
  Original Simulation        2  17  2008 Yr    1 of    1 Time  14:38:10
  Original Simulation        2  18  2008 Yr    1 of    1 Time  14:38:10
  Original Simulation        2  19  2008 Yr    1 of    1 Time  14:38:10

 Execution successfully completed 

  Date of Sim   2/10/2023 Time  14:38:13
